
#======================================================================
# CRYSTAL DATA
#----------------------------------------------------------------------
data_VESTA_phase_1

_chemical_name_common                  'CONTCAR\(3)                           '
_cell_length_a                         12.331300
_cell_length_b                         12.829200
_cell_length_c                         19.994400
_cell_angle_alpha                      89.996696
_cell_angle_beta                       89.998299
_cell_angle_gamma                      89.999496
_cell_volume                           3163.128245
_space_group_name_H-M_alt              'P 1'
_space_group_IT_number                 1

loop_
_space_group_symop_operation_xyz
   'x, y, z'

loop_
   _atom_site_label
   _atom_site_occupancy
   _atom_site_fract_x
   _atom_site_fract_y
   _atom_site_fract_z
   _atom_site_adp_type
   _atom_site_U_iso_or_equiv
   _atom_site_type_symbol
   C1         1.0     0.055498     0.054591     0.049169    Uiso  ? C
   C2         1.0     0.155977     0.110179     0.049299    Uiso  ? C
   C3         1.0     0.156372     0.221001     0.047553    Uiso  ? C
   C4         1.0     0.056335     0.276139     0.046186    Uiso  ? C
   C5         1.0     0.256703     0.056031     0.051998    Uiso  ? C
   C6         1.0     0.356809     0.112842     0.054912    Uiso  ? C
   C7         1.0     0.357224     0.224718     0.053710    Uiso  ? C
   C8         1.0     0.255926     0.277347     0.048832    Uiso  ? C
   C9         1.0     0.456701     0.057380     0.059290    Uiso  ? C
   C10        1.0     0.556987     0.115001     0.061334    Uiso  ? C
   C11        1.0     0.557913     0.227784     0.062016    Uiso  ? C
   C12        1.0     0.456930     0.284178     0.058409    Uiso  ? C
   C13        1.0     0.655671     0.055501     0.060427    Uiso  ? C
   C14        1.0     0.755502     0.111207     0.056530    Uiso  ? C
   C15        1.0     0.756817     0.223332     0.056469    Uiso  ? C
   C16        1.0     0.659954     0.284011     0.062079    Uiso  ? C
   C17        1.0     0.854916     0.054439     0.052906    Uiso  ? C
   C18        1.0     0.955470     0.109610     0.050074    Uiso  ? C
   C19        1.0     0.956559     0.220759     0.048836    Uiso  ? C
   C20        1.0     0.857313     0.276859     0.051387    Uiso  ? C
   C21        1.0     0.056224     0.387297     0.044262    Uiso  ? C
   C22        1.0     0.154523     0.443947     0.044402    Uiso  ? C
   C23        1.0     0.154214     0.555487     0.044557    Uiso  ? C
   C24        1.0     0.055229     0.610901     0.044115    Uiso  ? C
   C25        1.0     0.253697     0.388222     0.047235    Uiso  ? C
   C26        1.0     0.350985     0.444797     0.052114    Uiso  ? C
   C27        1.0     0.350942     0.556489     0.054446    Uiso  ? C
   C28        1.0     0.252984     0.612135     0.048588    Uiso  ? C
   C29        1.0     0.760296     0.444723     0.054497    Uiso  ? C
   C30        1.0     0.858520     0.387608     0.049014    Uiso  ? C
   C31        1.0     0.957271     0.442839     0.044838    Uiso  ? C
   C32        1.0     0.956731     0.553687     0.044526    Uiso  ? C
   C33        1.0     0.856305     0.605976     0.046837    Uiso  ? C
   C34        1.0     0.055080     0.722128     0.045599    Uiso  ? C
   C35        1.0     0.154506     0.778295     0.047939    Uiso  ? C
   C36        1.0     0.155262     0.889217     0.049361    Uiso  ? C
   C37        1.0     0.054808     0.943597     0.048861    Uiso  ? C
   C38        1.0     0.253963     0.722952     0.050503    Uiso  ? C
   C39        1.0     0.353925     0.776976     0.056527    Uiso  ? C
   C40        1.0     0.355584     0.888864     0.056690    Uiso  ? C
   C41        1.0     0.255939     0.944657     0.052377    Uiso  ? C
   C42        1.0     0.452424     0.718237     0.065354    Uiso  ? C
   C43        1.0     0.554622     0.886810     0.065613    Uiso  ? C
   C44        1.0     0.455623     0.945212     0.060924    Uiso  ? C
   C45        1.0     0.754250     0.885334     0.056646    Uiso  ? C
   C46        1.0     0.655040     0.943341     0.061760    Uiso  ? C
   C47        1.0     0.854897     0.719466     0.048396    Uiso  ? C
   C48        1.0     0.954812     0.776207     0.047106    Uiso  ? C
   C49        1.0     0.954505     0.887600     0.049059    Uiso  ? C
   C50        1.0     0.854144     0.942512     0.052419    Uiso  ? C
   C51        1.0     0.452005     0.395352     0.058737    Uiso  ? C
   C52        1.0     0.551244     0.776528     0.071541    Uiso  ? C
   C53        1.0     0.755216     0.773564     0.055301    Uiso  ? C
   C54        1.0     0.450858     0.605553     0.066862    Uiso  ? C
   N1         1.0     0.664947     0.392246     0.065347    Uiso  ? N
   N2         1.0     0.760541     0.552203     0.050548    Uiso  ? N
   Fe1        1.0     0.653355     0.670181     0.080975    Uiso  ? Fe
   Ni1        1.0     0.555676     0.494173     0.082926    Uiso  ? Ni
   O1         1.0     0.626447     0.579594     0.155008    Uiso  ? O
   H1         1.0     0.567074     0.605883     0.182497    Uiso  ? H
