
#======================================================================
# CRYSTAL DATA
#----------------------------------------------------------------------
data_VESTA_phase_1

_chemical_name_common                  'CONTCAR\(3)                           '
_cell_length_a                         12.331300
_cell_length_b                         12.829200
_cell_length_c                         19.994400
_cell_angle_alpha                      89.996696
_cell_angle_beta                       89.998299
_cell_angle_gamma                      89.999496
_cell_volume                           3163.128245
_space_group_name_H-M_alt              'P 1'
_space_group_IT_number                 1

loop_
_space_group_symop_operation_xyz
   'x, y, z'

loop_
   _atom_site_label
   _atom_site_occupancy
   _atom_site_fract_x
   _atom_site_fract_y
   _atom_site_fract_z
   _atom_site_adp_type
   _atom_site_U_iso_or_equiv
   _atom_site_type_symbol
   C1         1.0     0.055823     0.053926     0.050444    Uiso  ? C
   C2         1.0     0.156259     0.109375     0.050954    Uiso  ? C
   C3         1.0     0.156500     0.220143     0.049241    Uiso  ? C
   C4         1.0     0.056565     0.275342     0.047373    Uiso  ? C
   C5         1.0     0.256956     0.055143     0.053736    Uiso  ? C
   C6         1.0     0.357047     0.111808     0.057071    Uiso  ? C
   C7         1.0     0.357239     0.223578     0.056141    Uiso  ? C
   C8         1.0     0.256078     0.276291     0.050789    Uiso  ? C
   C9         1.0     0.457023     0.056545     0.061481    Uiso  ? C
   C10        1.0     0.557347     0.114247     0.063731    Uiso  ? C
   C11        1.0     0.558096     0.227037     0.064574    Uiso  ? C
   C12        1.0     0.456738     0.282935     0.061421    Uiso  ? C
   C13        1.0     0.656127     0.054728     0.062620    Uiso  ? C
   C14        1.0     0.755808     0.110687     0.058282    Uiso  ? C
   C15        1.0     0.756895     0.222974     0.057719    Uiso  ? C
   C16        1.0     0.659993     0.283850     0.063570    Uiso  ? C
   C17        1.0     0.855296     0.053963     0.054420    Uiso  ? C
   C18        1.0     0.955803     0.109047     0.051421    Uiso  ? C
   C19        1.0     0.956744     0.220124     0.050048    Uiso  ? C
   C20        1.0     0.857480     0.276287     0.052312    Uiso  ? C
   C21        1.0     0.056582     0.386437     0.044736    Uiso  ? C
   C22        1.0     0.154890     0.442956     0.044961    Uiso  ? C
   C23        1.0     0.154789     0.554599     0.044535    Uiso  ? C
   C24        1.0     0.056112     0.610103     0.043319    Uiso  ? C
   C25        1.0     0.253834     0.387054     0.048647    Uiso  ? C
   C26        1.0     0.351155     0.443375     0.053890    Uiso  ? C
   C27        1.0     0.351247     0.555272     0.054919    Uiso  ? C
   C28        1.0     0.253554     0.611213     0.048798    Uiso  ? C
   C29        1.0     0.760567     0.444465     0.054359    Uiso  ? C
   C30        1.0     0.858758     0.387022     0.049213    Uiso  ? C
   C31        1.0     0.957682     0.442071     0.044559    Uiso  ? C
   C32        1.0     0.957728     0.552855     0.043603    Uiso  ? C
   C33        1.0     0.857720     0.605393     0.045785    Uiso  ? C
   C34        1.0     0.055845     0.721470     0.044753    Uiso  ? C
   C35        1.0     0.155101     0.777542     0.047703    Uiso  ? C
   C36        1.0     0.155734     0.888491     0.049846    Uiso  ? C
   C37        1.0     0.055328     0.942964     0.049588    Uiso  ? C
   C38        1.0     0.254505     0.722079     0.050554    Uiso  ? C
   C39        1.0     0.354147     0.776305     0.057231    Uiso  ? C
   C40        1.0     0.355996     0.888169     0.057836    Uiso  ? C
   C41        1.0     0.256309     0.943869     0.053519    Uiso  ? C
   C42        1.0     0.452311     0.717689     0.066272    Uiso  ? C
   C43        1.0     0.555072     0.885886     0.067494    Uiso  ? C
   C44        1.0     0.456033     0.944375     0.062665    Uiso  ? C
   C45        1.0     0.755087     0.884717     0.058794    Uiso  ? C
   C46        1.0     0.655695     0.942508     0.063977    Uiso  ? C
   C47        1.0     0.856109     0.719100     0.048757    Uiso  ? C
   C48        1.0     0.955715     0.775758     0.046728    Uiso  ? C
   C49        1.0     0.955122     0.887100     0.049639    Uiso  ? C
   C50        1.0     0.854788     0.942016     0.053867    Uiso  ? C
   C51        1.0     0.451527     0.393796     0.062084    Uiso  ? C
   C52        1.0     0.550986     0.775834     0.073097    Uiso  ? C
   C53        1.0     0.756721     0.772958     0.057382    Uiso  ? C
   C54        1.0     0.450459     0.605044     0.066997    Uiso  ? C
   N1         1.0     0.664966     0.392480     0.066316    Uiso  ? N
   N2         1.0     0.762230     0.551745     0.049167    Uiso  ? N
   Fe1        1.0     0.652613     0.667473     0.080261    Uiso  ? Fe
   Ni1        1.0     0.554380     0.493726     0.088286    Uiso  ? Ni
   O1         1.0     0.622528     0.584058     0.147254    Uiso  ? O
