
#======================================================================
# CRYSTAL DATA
#----------------------------------------------------------------------
data_VESTA_phase_1

_chemical_name_common                  'CONTCAR\(3)                           '
_cell_length_a                         12.331300
_cell_length_b                         12.829200
_cell_length_c                         19.994400
_cell_angle_alpha                      89.996696
_cell_angle_beta                       89.998299
_cell_angle_gamma                      89.999496
_cell_volume                           3163.128245
_space_group_name_H-M_alt              'P 1'
_space_group_IT_number                 1

loop_
_space_group_symop_operation_xyz
   'x, y, z'

loop_
   _atom_site_label
   _atom_site_occupancy
   _atom_site_fract_x
   _atom_site_fract_y
   _atom_site_fract_z
   _atom_site_adp_type
   _atom_site_U_iso_or_equiv
   _atom_site_type_symbol
   C1         1.0     0.055877     0.052874     0.051305    Uiso  ? C
   C2         1.0     0.156271     0.108807     0.051450    Uiso  ? C
   C3         1.0     0.156926     0.219725     0.050644    Uiso  ? C
   C4         1.0     0.057145     0.274595     0.049789    Uiso  ? C
   C5         1.0     0.256865     0.054801     0.053067    Uiso  ? C
   C6         1.0     0.357103     0.111611     0.055054    Uiso  ? C
   C7         1.0     0.357705     0.223354     0.054608    Uiso  ? C
   C8         1.0     0.256606     0.276244     0.051691    Uiso  ? C
   C9         1.0     0.456905     0.056323     0.057654    Uiso  ? C
   C10        1.0     0.557479     0.113311     0.059184    Uiso  ? C
   C11        1.0     0.558586     0.225809     0.059485    Uiso  ? C
   C12        1.0     0.457805     0.282372     0.057368    Uiso  ? C
   C13        1.0     0.656232     0.053851     0.058963    Uiso  ? C
   C14        1.0     0.756254     0.109275     0.056314    Uiso  ? C
   C15        1.0     0.757722     0.221299     0.055989    Uiso  ? C
   C16        1.0     0.660561     0.281620     0.059382    Uiso  ? C
   C17        1.0     0.855304     0.052241     0.054040    Uiso  ? C
   C18        1.0     0.955913     0.107661     0.051989    Uiso  ? C
   C19        1.0     0.957303     0.218831     0.051122    Uiso  ? C
   C20        1.0     0.858274     0.274878     0.052599    Uiso  ? C
   C21        1.0     0.057409     0.385871     0.048906    Uiso  ? C
   C22        1.0     0.155609     0.442636     0.049081    Uiso  ? C
   C23        1.0     0.155132     0.554199     0.049048    Uiso  ? C
   C24        1.0     0.055915     0.609300     0.048836    Uiso  ? C
   C25        1.0     0.254799     0.387104     0.050691    Uiso  ? C
   C26        1.0     0.352720     0.443683     0.053045    Uiso  ? C
   C27        1.0     0.353471     0.555833     0.053717    Uiso  ? C
   C28        1.0     0.254265     0.610847     0.050870    Uiso  ? C
   C29        1.0     0.762198     0.442438     0.054946    Uiso  ? C
   C30        1.0     0.860091     0.385755     0.051196    Uiso  ? C
   C31        1.0     0.958615     0.441334     0.049143    Uiso  ? C
   C32        1.0     0.957180     0.552077     0.049290    Uiso  ? C
   C33        1.0     0.856608     0.604465     0.051230    Uiso  ? C
   C34        1.0     0.055239     0.720469     0.049442    Uiso  ? C
   C35        1.0     0.154489     0.776748     0.050304    Uiso  ? C
   C36        1.0     0.155318     0.887692     0.051139    Uiso  ? C
   C37        1.0     0.054944     0.941812     0.051106    Uiso  ? C
   C38        1.0     0.254064     0.721585     0.051570    Uiso  ? C
   C39        1.0     0.353673     0.776375     0.055084    Uiso  ? C
   C40        1.0     0.355501     0.888059     0.055513    Uiso  ? C
   C41        1.0     0.255866     0.943521     0.052990    Uiso  ? C
   C42        1.0     0.452564     0.718599     0.060360    Uiso  ? C
   C43        1.0     0.554476     0.886708     0.061888    Uiso  ? C
   C44        1.0     0.455558     0.944462     0.058384    Uiso  ? C
   C45        1.0     0.754135     0.882597     0.057379    Uiso  ? C
   C46        1.0     0.655492     0.941934     0.060109    Uiso  ? C
   C47        1.0     0.854975     0.717470     0.052477    Uiso  ? C
   C48        1.0     0.954848     0.774267     0.050790    Uiso  ? C
   C49        1.0     0.954692     0.885579     0.051780    Uiso  ? C
   C50        1.0     0.854136     0.940074     0.054192    Uiso  ? C
   C51        1.0     0.452968     0.393209     0.056633    Uiso  ? C
   C52        1.0     0.550877     0.777108     0.065924    Uiso  ? C
   C53        1.0     0.754224     0.769875     0.057308    Uiso  ? C
   C54        1.0     0.454429     0.606099     0.059990    Uiso  ? C
   N1         1.0     0.665903     0.389637     0.061281    Uiso  ? N
   N2         1.0     0.760367     0.550321     0.054107    Uiso  ? N
   Fe1        1.0     0.643657     0.666268     0.072559    Uiso  ? Fe
   Ni1        1.0     0.562146     0.493749     0.066998    Uiso  ? Ni
   H1         1.0     0.627955     0.658291     0.154761    Uiso  ? H
   H2         1.0     0.610755     0.593784     0.141840    Uiso  ? H
