
#======================================================================
# CRYSTAL DATA
#----------------------------------------------------------------------
data_VESTA_phase_1

_chemical_name_common                  'CONTCAR\(3)                           '
_cell_length_a                         12.331300
_cell_length_b                         12.829200
_cell_length_c                         19.994400
_cell_angle_alpha                      89.996696
_cell_angle_beta                       89.998299
_cell_angle_gamma                      89.999496
_cell_volume                           3163.128245
_space_group_name_H-M_alt              'P 1'
_space_group_IT_number                 1

loop_
_space_group_symop_operation_xyz
   'x, y, z'

loop_
   _atom_site_label
   _atom_site_occupancy
   _atom_site_fract_x
   _atom_site_fract_y
   _atom_site_fract_z
   _atom_site_adp_type
   _atom_site_U_iso_or_equiv
   _atom_site_type_symbol
   C1         1.0     0.056299     0.049491     0.046149    Uiso  ? C
   C2         1.0     0.156816     0.104758     0.045637    Uiso  ? C
   C3         1.0     0.156768     0.215665     0.043683    Uiso  ? C
   C4         1.0     0.056553     0.271183     0.042883    Uiso  ? C
   C5         1.0     0.257680     0.050241     0.048131    Uiso  ? C
   C6         1.0     0.357765     0.106893     0.051447    Uiso  ? C
   C7         1.0     0.357831     0.218931     0.049850    Uiso  ? C
   C8         1.0     0.256382     0.271741     0.044488    Uiso  ? C
   C9         1.0     0.457678     0.051237     0.056763    Uiso  ? C
   C10        1.0     0.557584     0.109384     0.060416    Uiso  ? C
   C11        1.0     0.558210     0.222208     0.060580    Uiso  ? C
   C12        1.0     0.457359     0.278507     0.054823    Uiso  ? C
   C13        1.0     0.656553     0.050256     0.061514    Uiso  ? C
   C14        1.0     0.756358     0.106107     0.057317    Uiso  ? C
   C15        1.0     0.757399     0.218252     0.056813    Uiso  ? C
   C16        1.0     0.660286     0.278638     0.062199    Uiso  ? C
   C17        1.0     0.856030     0.049857     0.052789    Uiso  ? C
   C18        1.0     0.956266     0.104935     0.048196    Uiso  ? C
   C19        1.0     0.956821     0.216068     0.046839    Uiso  ? C
   C20        1.0     0.857456     0.272250     0.050884    Uiso  ? C
   C21        1.0     0.055996     0.382367     0.040430    Uiso  ? C
   C22        1.0     0.154446     0.438655     0.039594    Uiso  ? C
   C23        1.0     0.154024     0.550182     0.039227    Uiso  ? C
   C24        1.0     0.054809     0.605777     0.039227    Uiso  ? C
   C25        1.0     0.253704     0.382598     0.042496    Uiso  ? C
   C26        1.0     0.350948     0.439025     0.047109    Uiso  ? C
   C27        1.0     0.350862     0.550583     0.049474    Uiso  ? C
   C28        1.0     0.253144     0.606545     0.043102    Uiso  ? C
   C29        1.0     0.759908     0.440587     0.056875    Uiso  ? C
   C30        1.0     0.858148     0.383302     0.049119    Uiso  ? C
   C31        1.0     0.956852     0.438193     0.042489    Uiso  ? C
   C32        1.0     0.955831     0.548958     0.041617    Uiso  ? C
   C33        1.0     0.855158     0.601577     0.047711    Uiso  ? C
   C34        1.0     0.055580     0.717028     0.040653    Uiso  ? C
   C35        1.0     0.155586     0.772870     0.042615    Uiso  ? C
   C36        1.0     0.156410     0.883766     0.044776    Uiso  ? C
   C37        1.0     0.055882     0.938452     0.045565    Uiso  ? C
   C38        1.0     0.255338     0.717275     0.044903    Uiso  ? C
   C39        1.0     0.356247     0.770531     0.051268    Uiso  ? C
   C40        1.0     0.357217     0.882517     0.052188    Uiso  ? C
   C41        1.0     0.257281     0.938760     0.047981    Uiso  ? C
   C42        1.0     0.455138     0.710715     0.060547    Uiso  ? C
   C43        1.0     0.556051     0.880095     0.064874    Uiso  ? C
   C44        1.0     0.457054     0.938705     0.057871    Uiso  ? C
   C45        1.0     0.756637     0.881362     0.060897    Uiso  ? C
   C46        1.0     0.656356     0.937996     0.064334    Uiso  ? C
   C47        1.0     0.855550     0.714851     0.049739    Uiso  ? C
   C48        1.0     0.955338     0.771364     0.044342    Uiso  ? C
   C49        1.0     0.955643     0.882761     0.047291    Uiso  ? C
   C50        1.0     0.855861     0.938175     0.053100    Uiso  ? C
   C51        1.0     0.452196     0.389789     0.053572    Uiso  ? C
   C52        1.0     0.553441     0.769051     0.069612    Uiso  ? C
   C53        1.0     0.758450     0.769935     0.063635    Uiso  ? C
   C54        1.0     0.451133     0.598369     0.062395    Uiso  ? C
   N1         1.0     0.664836     0.386604     0.066197    Uiso  ? N
   N2         1.0     0.759182     0.549005     0.054769    Uiso  ? N
   Fe1        1.0     0.660306     0.678722     0.105242    Uiso  ? Fe
   Ni1        1.0     0.554002     0.487690     0.081017    Uiso  ? Ni
   O1         1.0     0.624379     0.556623     0.156448    Uiso  ? O
   O2         1.0     0.662580     0.747605     0.183359    Uiso  ? O
   H1         1.0     0.672906     0.822524     0.176873    Uiso  ? H
   H2         1.0     0.575958     0.579184     0.192238    Uiso  ? H
