
#======================================================================
# CRYSTAL DATA
#----------------------------------------------------------------------
data_VESTA_phase_1

_chemical_name_common                  'CONTCAR\(3)                           '
_cell_length_a                         12.331300
_cell_length_b                         12.829200
_cell_length_c                         19.994400
_cell_angle_alpha                      89.996696
_cell_angle_beta                       89.998299
_cell_angle_gamma                      89.999496
_cell_volume                           3163.128245
_space_group_name_H-M_alt              'P 1'
_space_group_IT_number                 1

loop_
_space_group_symop_operation_xyz
   'x, y, z'

loop_
   _atom_site_label
   _atom_site_occupancy
   _atom_site_fract_x
   _atom_site_fract_y
   _atom_site_fract_z
   _atom_site_adp_type
   _atom_site_U_iso_or_equiv
   _atom_site_type_symbol
   C1         1.0     0.055439     0.053570     0.049506    Uiso  ? C
   C2         1.0     0.155861     0.109516     0.049780    Uiso  ? C
   C3         1.0     0.156637     0.220421     0.048825    Uiso  ? C
   C4         1.0     0.056763     0.275256     0.047888    Uiso  ? C
   C5         1.0     0.256382     0.055529     0.051747    Uiso  ? C
   C6         1.0     0.356641     0.112352     0.054161    Uiso  ? C
   C7         1.0     0.357489     0.224078     0.053575    Uiso  ? C
   C8         1.0     0.256360     0.276965     0.049992    Uiso  ? C
   C9         1.0     0.456340     0.056919     0.057514    Uiso  ? C
   C10        1.0     0.556952     0.113731     0.059376    Uiso  ? C
   C11        1.0     0.558230     0.226238     0.060204    Uiso  ? C
   C12        1.0     0.457622     0.283015     0.057387    Uiso  ? C
   C13        1.0     0.655758     0.054247     0.058640    Uiso  ? C
   C14        1.0     0.755771     0.109747     0.055405    Uiso  ? C
   C15        1.0     0.757318     0.221714     0.055339    Uiso  ? C
   C16        1.0     0.660246     0.282068     0.060306    Uiso  ? C
   C17        1.0     0.854876     0.052812     0.052554    Uiso  ? C
   C18        1.0     0.955457     0.108321     0.050312    Uiso  ? C
   C19        1.0     0.956891     0.219485     0.049593    Uiso  ? C
   C20        1.0     0.857795     0.275415     0.051517    Uiso  ? C
   C21        1.0     0.056923     0.386428     0.046692    Uiso  ? C
   C22        1.0     0.155323     0.443252     0.047089    Uiso  ? C
   C23        1.0     0.154954     0.554815     0.047152    Uiso  ? C
   C24        1.0     0.055611     0.609800     0.046450    Uiso  ? C
   C25        1.0     0.254676     0.387853     0.049076    Uiso  ? C
   C26        1.0     0.352669     0.444530     0.052803    Uiso  ? C
   C27        1.0     0.353189     0.556448     0.054851    Uiso  ? C
   C28        1.0     0.254039     0.611477     0.050135    Uiso  ? C
   C29        1.0     0.761026     0.443078     0.054120    Uiso  ? C
   C30        1.0     0.859164     0.386221     0.049775    Uiso  ? C
   C31        1.0     0.957873     0.441731     0.046856    Uiso  ? C
   C32        1.0     0.956947     0.552457     0.046698    Uiso  ? C
   C33        1.0     0.856189     0.604401     0.048256    Uiso  ? C
   C34        1.0     0.054734     0.720969     0.047062    Uiso  ? C
   C35        1.0     0.153960     0.777356     0.048707    Uiso  ? C
   C36        1.0     0.154798     0.888410     0.049505    Uiso  ? C
   C37        1.0     0.054433     0.942565     0.049154    Uiso  ? C
   C38        1.0     0.253612     0.722294     0.050927    Uiso  ? C
   C39        1.0     0.352979     0.777195     0.055348    Uiso  ? C
   C40        1.0     0.354905     0.888785     0.055133    Uiso  ? C
   C41        1.0     0.255248     0.944264     0.051820    Uiso  ? C
   C42        1.0     0.451733     0.719492     0.063162    Uiso  ? C
   C43        1.0     0.553817     0.887301     0.062512    Uiso  ? C
   C44        1.0     0.454792     0.945099     0.058608    Uiso  ? C
   C45        1.0     0.753613     0.883262     0.056230    Uiso  ? C
   C46        1.0     0.654919     0.942415     0.059896    Uiso  ? C
   C47        1.0     0.854291     0.717838     0.049433    Uiso  ? C
   C48        1.0     0.954175     0.774806     0.047957    Uiso  ? C
   C49        1.0     0.954118     0.886222     0.049494    Uiso  ? C
   C50        1.0     0.853770     0.940738     0.052441    Uiso  ? C
   C51        1.0     0.453056     0.393999     0.057637    Uiso  ? C
   C52        1.0     0.549462     0.778071     0.066898    Uiso  ? C
   C53        1.0     0.754287     0.771116     0.055418    Uiso  ? C
   C54        1.0     0.453468     0.606623     0.065357    Uiso  ? C
   N1         1.0     0.665279     0.389825     0.063714    Uiso  ? N
   N2         1.0     0.760451     0.550357     0.050484    Uiso  ? N
   Fe1        1.0     0.644322     0.667619     0.070321    Uiso  ? Fe
   Ni1        1.0     0.559332     0.491167     0.082374    Uiso  ? Ni
   O1         1.0     0.623626     0.550116     0.161894    Uiso  ? O
   O2         1.0     0.653940     0.653429     0.158936    Uiso  ? O
