
#======================================================================
# CRYSTAL DATA
#----------------------------------------------------------------------
data_VESTA_phase_1

_chemical_name_common                  'POSCAR\(2)                            '
_cell_length_a                         12.331300
_cell_length_b                         12.829200
_cell_length_c                         19.994400
_cell_angle_alpha                      89.996696
_cell_angle_beta                       89.998299
_cell_angle_gamma                      89.999496
_cell_volume                           3163.128245
_space_group_name_H-M_alt              'P 1'
_space_group_IT_number                 1

loop_
_space_group_symop_operation_xyz
   'x, y, z'

loop_
   _atom_site_label
   _atom_site_occupancy
   _atom_site_fract_x
   _atom_site_fract_y
   _atom_site_fract_z
   _atom_site_adp_type
   _atom_site_U_iso_or_equiv
   _atom_site_type_symbol
   C1         1.0     0.055980     0.053703     0.055773    Uiso  ? C
   C2         1.0     0.156259     0.109838     0.055794    Uiso  ? C
   C3         1.0     0.157036     0.220753     0.055781    Uiso  ? C
   C4         1.0     0.057417     0.275456     0.055748    Uiso  ? C
   C5         1.0     0.256684     0.055871     0.055809    Uiso  ? C
   C6         1.0     0.356993     0.112779     0.055763    Uiso  ? C
   C7         1.0     0.357754     0.224435     0.055734    Uiso  ? C
   C8         1.0     0.256776     0.277421     0.055768    Uiso  ? C
   C9         1.0     0.456686     0.057552     0.055729    Uiso  ? C
   C10        1.0     0.557476     0.114012     0.055690    Uiso  ? C
   C11        1.0     0.558697     0.226275     0.055669    Uiso  ? C
   C12        1.0     0.458169     0.283158     0.055681    Uiso  ? C
   C13        1.0     0.656305     0.054588     0.055695    Uiso  ? C
   C14        1.0     0.756505     0.109812     0.055705    Uiso  ? C
   C15        1.0     0.758039     0.221674     0.055699    Uiso  ? C
   C16        1.0     0.660708     0.281635     0.055662    Uiso  ? C
   C17        1.0     0.855449     0.052783     0.055707    Uiso  ? C
   C18        1.0     0.956094     0.108349     0.055736    Uiso  ? C
   C19        1.0     0.957620     0.219475     0.055730    Uiso  ? C
   C20        1.0     0.858648     0.275335     0.055705    Uiso  ? C
   C21        1.0     0.057837     0.386758     0.055740    Uiso  ? C
   C22        1.0     0.156075     0.443560     0.055774    Uiso  ? C
   C23        1.0     0.155591     0.555185     0.055795    Uiso  ? C
   C24        1.0     0.056227     0.610004     0.055769    Uiso  ? C
   C25        1.0     0.255280     0.388294     0.055769    Uiso  ? C
   C26        1.0     0.353656     0.444829     0.055731    Uiso  ? C
   C27        1.0     0.354929     0.557255     0.055729    Uiso  ? C
   C28        1.0     0.255108     0.611745     0.055785    Uiso  ? C
   C29        1.0     0.762495     0.442506     0.055642    Uiso  ? C
   C30        1.0     0.860636     0.386168     0.055687    Uiso  ? C
   C31        1.0     0.958973     0.441963     0.055707    Uiso  ? C
   C32        1.0     0.957132     0.552772     0.055705    Uiso  ? C
   C33        1.0     0.856333     0.604743     0.055646    Uiso  ? C
   C34        1.0     0.055280     0.721186     0.055781    Uiso  ? C
   C35        1.0     0.154312     0.777572     0.055820    Uiso  ? C
   C36        1.0     0.155163     0.888571     0.055827    Uiso  ? C
   C37        1.0     0.054941     0.942676     0.055781    Uiso  ? C
   C38        1.0     0.253908     0.722631     0.055803    Uiso  ? C
   C39        1.0     0.352987     0.777908     0.055768    Uiso  ? C
   C40        1.0     0.355171     0.889335     0.055788    Uiso  ? C
   C41        1.0     0.255539     0.944677     0.055829    Uiso  ? C
   C42        1.0     0.452520     0.720708     0.055684    Uiso  ? C
   C43        1.0     0.554069     0.888583     0.055688    Uiso  ? C
   C44        1.0     0.455233     0.945910     0.055738    Uiso  ? C
   C45        1.0     0.753956     0.883025     0.055641    Uiso  ? C
   C46        1.0     0.655479     0.942956     0.055673    Uiso  ? C
   C47        1.0     0.854966     0.718049     0.055649    Uiso  ? C
   C48        1.0     0.955007     0.774860     0.055717    Uiso  ? C
   C49        1.0     0.954707     0.886206     0.055721    Uiso  ? C
   C50        1.0     0.854170     0.940608     0.055675    Uiso  ? C
   C51        1.0     0.453321     0.393812     0.055670    Uiso  ? C
   C52        1.0     0.549999     0.779432     0.055649    Uiso  ? C
   C53        1.0     0.754498     0.770235     0.055616    Uiso  ? C
   C54        1.0     0.456545     0.608022     0.055663    Uiso  ? C
   N1         1.0     0.665997     0.389300     0.055632    Uiso  ? N
   N2         1.0     0.759745     0.550331     0.055603    Uiso  ? N
   Fe1        1.0     0.639607     0.667475     0.055620    Uiso  ? Fe
   Ni1        1.0     0.564680     0.493847     0.055625    Uiso  ? Ni
