
#======================================================================
# CRYSTAL DATA
#----------------------------------------------------------------------
data_VESTA_phase_1

_chemical_name_common                  'CONTCAR\(4)                           '
_cell_length_a                         12.331300
_cell_length_b                         12.829200
_cell_length_c                         19.994400
_cell_angle_alpha                      89.996696
_cell_angle_beta                       89.998299
_cell_angle_gamma                      89.999496
_cell_volume                           3163.128245
_space_group_name_H-M_alt              'P 1'
_space_group_IT_number                 1

loop_
_space_group_symop_operation_xyz
   'x, y, z'

loop_
   _atom_site_label
   _atom_site_occupancy
   _atom_site_fract_x
   _atom_site_fract_y
   _atom_site_fract_z
   _atom_site_adp_type
   _atom_site_U_iso_or_equiv
   _atom_site_type_symbol
   C1         1.0     0.055932     0.054377     0.052182    Uiso  ? C
   C2         1.0     0.156435     0.109621     0.052388    Uiso  ? C
   C3         1.0     0.156111     0.220392     0.050618    Uiso  ? C
   C4         1.0     0.056076     0.275840     0.049226    Uiso  ? C
   C5         1.0     0.257209     0.055039     0.054709    Uiso  ? C
   C6         1.0     0.357483     0.111213     0.057634    Uiso  ? C
   C7         1.0     0.356705     0.223126     0.056298    Uiso  ? C
   C8         1.0     0.255706     0.276271     0.051472    Uiso  ? C
   C9         1.0     0.457833     0.055589     0.061575    Uiso  ? C
   C10        1.0     0.557363     0.114014     0.063642    Uiso  ? C
   C11        1.0     0.557715     0.229109     0.063874    Uiso  ? C
   C12        1.0     0.454999     0.283867     0.060129    Uiso  ? C
   C13        1.0     0.655961     0.053200     0.063284    Uiso  ? C
   C14        1.0     0.754975     0.111036     0.060164    Uiso  ? C
   C15        1.0     0.755749     0.224119     0.060164    Uiso  ? C
   C16        1.0     0.658750     0.286307     0.064497    Uiso  ? C
   C17        1.0     0.854782     0.054065     0.056606    Uiso  ? C
   C18        1.0     0.955434     0.109255     0.053741    Uiso  ? C
   C19        1.0     0.956020     0.220698     0.052524    Uiso  ? C
   C20        1.0     0.856844     0.277396     0.055204    Uiso  ? C
   C21        1.0     0.056666     0.386826     0.046041    Uiso  ? C
   C22        1.0     0.155398     0.443029     0.045090    Uiso  ? C
   C23        1.0     0.155523     0.553869     0.044048    Uiso  ? C
   C24        1.0     0.057339     0.610560     0.043067    Uiso  ? C
   C25        1.0     0.254310     0.387270     0.048902    Uiso  ? C
   C26        1.0     0.352688     0.442108     0.053291    Uiso  ? C
   C27        1.0     0.352106     0.554475     0.054455    Uiso  ? C
   C28        1.0     0.253952     0.609901     0.048265    Uiso  ? C
   C29        1.0     0.762239     0.447254     0.058811    Uiso  ? C
   C30        1.0     0.859220     0.388485     0.052610    Uiso  ? C
   C31        1.0     0.958220     0.443180     0.046732    Uiso  ? C
   C32        1.0     0.958693     0.554412     0.044833    Uiso  ? C
   C33        1.0     0.860109     0.608477     0.049347    Uiso  ? C
   C34        1.0     0.056863     0.721238     0.044848    Uiso  ? C
   C35        1.0     0.155645     0.777486     0.047532    Uiso  ? C
   C36        1.0     0.156561     0.888360     0.050333    Uiso  ? C
   C37        1.0     0.056115     0.943547     0.050739    Uiso  ? C
   C38        1.0     0.254271     0.721175     0.049985    Uiso  ? C
   C39        1.0     0.353494     0.775231     0.056440    Uiso  ? C
   C40        1.0     0.356517     0.887178     0.057783    Uiso  ? C
   C41        1.0     0.256928     0.943450     0.054115    Uiso  ? C
   C42        1.0     0.450093     0.715322     0.064278    Uiso  ? C
   C43        1.0     0.554961     0.882023     0.067215    Uiso  ? C
   C44        1.0     0.457106     0.942633     0.062644    Uiso  ? C
   C45        1.0     0.756882     0.881987     0.059360    Uiso  ? C
   C46        1.0     0.655874     0.938867     0.064257    Uiso  ? C
   C47        1.0     0.858758     0.721087     0.050197    Uiso  ? C
   C48        1.0     0.957260     0.776593     0.047655    Uiso  ? C
   C49        1.0     0.956382     0.887912     0.050906    Uiso  ? C
   C50        1.0     0.855278     0.941685     0.055520    Uiso  ? C
   C51        1.0     0.549779     0.770029     0.071567    Uiso  ? C
   N1         1.0     0.449597     0.391061     0.059445    Uiso  ? N
   N2         1.0     0.665037     0.396514     0.067734    Uiso  ? N
   N3         1.0     0.764184     0.554677     0.056992    Uiso  ? N
   N4         1.0     0.761028     0.773131     0.057089    Uiso  ? N
   N5         1.0     0.447408     0.605898     0.064181    Uiso  ? N
   Fe1        1.0     0.653426     0.664615     0.070436    Uiso  ? Fe
   Ni1        1.0     0.554430     0.499531     0.074722    Uiso  ? Ni
   H1         1.0     0.607268     0.582390     0.127351    Uiso  ? H
