
#======================================================================
# CRYSTAL DATA
#----------------------------------------------------------------------
data_VESTA_phase_1

_chemical_name_common                  '12456                                 '
_cell_length_a                         12.331300
_cell_length_b                         12.829200
_cell_length_c                         19.994400
_cell_angle_alpha                      89.996696
_cell_angle_beta                       89.998299
_cell_angle_gamma                      89.999496
_cell_volume                           3163.128245
_space_group_name_H-M_alt              'P 1'
_space_group_IT_number                 1

loop_
_space_group_symop_operation_xyz
   'x, y, z'

loop_
   _atom_site_label
   _atom_site_occupancy
   _atom_site_fract_x
   _atom_site_fract_y
   _atom_site_fract_z
   _atom_site_adp_type
   _atom_site_U_iso_or_equiv
   _atom_site_type_symbol
   C1         1.0     0.055913     0.053317     0.050853    Uiso  ? C
   C2         1.0     0.156468     0.108498     0.050902    Uiso  ? C
   C3         1.0     0.156058     0.219334     0.049559    Uiso  ? C
   C4         1.0     0.056009     0.274884     0.048599    Uiso  ? C
   C5         1.0     0.257296     0.053843     0.052898    Uiso  ? C
   C6         1.0     0.357571     0.110039     0.056005    Uiso  ? C
   C7         1.0     0.356750     0.222062     0.054964    Uiso  ? C
   C8         1.0     0.255699     0.275202     0.050452    Uiso  ? C
   C9         1.0     0.457882     0.054352     0.060186    Uiso  ? C
   C10        1.0     0.557355     0.113007     0.062985    Uiso  ? C
   C11        1.0     0.557630     0.228024     0.063262    Uiso  ? C
   C12        1.0     0.455009     0.282825     0.059082    Uiso  ? C
   C13        1.0     0.656034     0.052235     0.063138    Uiso  ? C
   C14        1.0     0.755052     0.110003     0.059895    Uiso  ? C
   C15        1.0     0.755760     0.223121     0.059967    Uiso  ? C
   C16        1.0     0.658799     0.285218     0.064371    Uiso  ? C
   C17        1.0     0.854781     0.053053     0.055969    Uiso  ? C
   C18        1.0     0.955437     0.108261     0.052790    Uiso  ? C
   C19        1.0     0.955950     0.219747     0.051885    Uiso  ? C
   C20        1.0     0.856750     0.276492     0.055041    Uiso  ? C
   C21        1.0     0.056488     0.385960     0.045814    Uiso  ? C
   C22        1.0     0.155312     0.442028     0.044623    Uiso  ? C
   C23        1.0     0.155338     0.552888     0.043368    Uiso  ? C
   C24        1.0     0.057006     0.609550     0.042713    Uiso  ? C
   C25        1.0     0.254212     0.386240     0.048194    Uiso  ? C
   C26        1.0     0.352769     0.440989     0.052411    Uiso  ? C
   C27        1.0     0.352355     0.553464     0.053268    Uiso  ? C
   C28        1.0     0.253985     0.608859     0.046906    Uiso  ? C
   C29        1.0     0.761975     0.446409     0.059678    Uiso  ? C
   C30        1.0     0.859042     0.387673     0.053034    Uiso  ? C
   C31        1.0     0.957997     0.442309     0.047070    Uiso  ? C
   C32        1.0     0.958084     0.553577     0.045263    Uiso  ? C
   C33        1.0     0.859439     0.607645     0.050328    Uiso  ? C
   C34        1.0     0.056639     0.720203     0.044063    Uiso  ? C
   C35        1.0     0.155678     0.776362     0.045924    Uiso  ? C
   C36        1.0     0.156593     0.887242     0.048565    Uiso  ? C
   C37        1.0     0.056135     0.942415     0.049433    Uiso  ? C
   C38        1.0     0.254513     0.720054     0.047968    Uiso  ? C
   C39        1.0     0.354177     0.773920     0.053866    Uiso  ? C
   C40        1.0     0.356787     0.885921     0.055461    Uiso  ? C
   C41        1.0     0.257121     0.942209     0.052044    Uiso  ? C
   C42        1.0     0.450726     0.713857     0.062242    Uiso  ? C
   C43        1.0     0.555154     0.880859     0.066436    Uiso  ? C
   C44        1.0     0.457302     0.941333     0.060906    Uiso  ? C
   C45        1.0     0.756923     0.881007     0.059565    Uiso  ? C
   C46        1.0     0.656024     0.937884     0.064359    Uiso  ? C
   C47        1.0     0.858124     0.720131     0.050636    Uiso  ? C
   C48        1.0     0.956838     0.775502     0.047326    Uiso  ? C
   C49        1.0     0.956308     0.886816     0.050161    Uiso  ? C
   C50        1.0     0.855257     0.940671     0.054997    Uiso  ? C
   C51        1.0     0.550658     0.768633     0.070639    Uiso  ? C
   N1         1.0     0.449634     0.390081     0.058421    Uiso  ? N
   N2         1.0     0.665042     0.395336     0.067871    Uiso  ? N
   N3         1.0     0.763242     0.554263     0.058762    Uiso  ? N
   N4         1.0     0.760448     0.772041     0.057628    Uiso  ? N
   N5         1.0     0.447899     0.604681     0.062682    Uiso  ? N
   Fe1        1.0     0.654036     0.664467     0.075251    Uiso  ? Fe
   Ni1        1.0     0.554481     0.498494     0.073262    Uiso  ? Ni
   H1         1.0     0.639504     0.689895     0.146413    Uiso  ? H
   H2         1.0     0.605881     0.582310     0.127254    Uiso  ? H
