
#======================================================================
# CRYSTAL DATA
#----------------------------------------------------------------------
data_VESTA_phase_1

_chemical_name_common                  '12456                                 '
_cell_length_a                         12.331300
_cell_length_b                         12.829200
_cell_length_c                         19.994400
_cell_angle_alpha                      89.996696
_cell_angle_beta                       89.998299
_cell_angle_gamma                      89.999496
_cell_volume                           3163.128245
_space_group_name_H-M_alt              'P 1'
_space_group_IT_number                 1

loop_
_space_group_symop_operation_xyz
   'x, y, z'

loop_
   _atom_site_label
   _atom_site_occupancy
   _atom_site_fract_x
   _atom_site_fract_y
   _atom_site_fract_z
   _atom_site_adp_type
   _atom_site_U_iso_or_equiv
   _atom_site_type_symbol
   C1         1.0     0.056078     0.054476     0.049493    Uiso  ? C
   C2         1.0     0.156538     0.110014     0.049380    Uiso  ? C
   C3         1.0     0.156268     0.220858     0.048263    Uiso  ? C
   C4         1.0     0.056253     0.276275     0.047352    Uiso  ? C
   C5         1.0     0.257189     0.055303     0.051034    Uiso  ? C
   C6         1.0     0.357447     0.111409     0.053564    Uiso  ? C
   C7         1.0     0.356718     0.223302     0.053154    Uiso  ? C
   C8         1.0     0.255912     0.276831     0.049360    Uiso  ? C
   C9         1.0     0.457757     0.055862     0.056701    Uiso  ? C
   C10        1.0     0.557418     0.114060     0.058865    Uiso  ? C
   C11        1.0     0.557743     0.228751     0.059331    Uiso  ? C
   C12        1.0     0.455089     0.283705     0.056993    Uiso  ? C
   C13        1.0     0.656005     0.053711     0.059044    Uiso  ? C
   C14        1.0     0.755368     0.110769     0.056369    Uiso  ? C
   C15        1.0     0.756408     0.223355     0.056006    Uiso  ? C
   C16        1.0     0.659409     0.285081     0.059438    Uiso  ? C
   C17        1.0     0.855118     0.053938     0.053498    Uiso  ? C
   C18        1.0     0.955689     0.109343     0.050790    Uiso  ? C
   C19        1.0     0.956372     0.220817     0.049805    Uiso  ? C
   C20        1.0     0.857205     0.277232     0.052086    Uiso  ? C
   C21        1.0     0.056735     0.387337     0.045436    Uiso  ? C
   C22        1.0     0.155605     0.443515     0.044890    Uiso  ? C
   C23        1.0     0.155615     0.554326     0.044637    Uiso  ? C
   C24        1.0     0.056695     0.610676     0.044159    Uiso  ? C
   C25        1.0     0.254657     0.387937     0.047667    Uiso  ? C
   C26        1.0     0.353493     0.442704     0.052060    Uiso  ? C
   C27        1.0     0.353857     0.555621     0.053224    Uiso  ? C
   C28        1.0     0.254534     0.610173     0.048005    Uiso  ? C
   C29        1.0     0.761751     0.446415     0.055643    Uiso  ? C
   C30        1.0     0.859340     0.388352     0.050555    Uiso  ? C
   C31        1.0     0.958131     0.443480     0.046435    Uiso  ? C
   C32        1.0     0.957701     0.554719     0.045731    Uiso  ? C
   C33        1.0     0.857680     0.608138     0.049814    Uiso  ? C
   C34        1.0     0.056304     0.721381     0.045165    Uiso  ? C
   C35        1.0     0.155424     0.777536     0.046619    Uiso  ? C
   C36        1.0     0.156452     0.888465     0.048274    Uiso  ? C
   C37        1.0     0.056078     0.943533     0.048814    Uiso  ? C
   C38        1.0     0.254207     0.721533     0.048660    Uiso  ? C
   C39        1.0     0.353581     0.775812     0.053229    Uiso  ? C
   C40        1.0     0.356469     0.887721     0.053561    Uiso  ? C
   C41        1.0     0.256772     0.943740     0.050656    Uiso  ? C
   C42        1.0     0.450707     0.716346     0.059809    Uiso  ? C
   C43        1.0     0.555152     0.882971     0.061563    Uiso  ? C
   C44        1.0     0.457004     0.943269     0.057157    Uiso  ? C
   C45        1.0     0.756705     0.882724     0.057838    Uiso  ? C
   C46        1.0     0.655944     0.939597     0.060499    Uiso  ? C
   C47        1.0     0.857741     0.721050     0.051002    Uiso  ? C
   C48        1.0     0.956596     0.776359     0.047669    Uiso  ? C
   C49        1.0     0.956249     0.887844     0.049760    Uiso  ? C
   C50        1.0     0.855527     0.941778     0.053456    Uiso  ? C
   C51        1.0     0.549932     0.771544     0.066181    Uiso  ? C
   N1         1.0     0.449599     0.390883     0.057964    Uiso  ? N
   N2         1.0     0.665598     0.393946     0.061578    Uiso  ? N
   N3         1.0     0.761535     0.554231     0.055194    Uiso  ? N
   N4         1.0     0.760472     0.773691     0.058882    Uiso  ? N
   N5         1.0     0.449933     0.607399     0.060294    Uiso  ? N
   Fe1        1.0     0.655882     0.673563     0.084258    Uiso  ? Fe
   Ni1        1.0     0.556985     0.496579     0.079441    Uiso  ? Ni
   O1         1.0     0.598583     0.536098     0.167918    Uiso  ? O
   O2         1.0     0.637271     0.637138     0.169789    Uiso  ? O
