
#======================================================================
# CRYSTAL DATA
#----------------------------------------------------------------------
data_VESTA_phase_1

_chemical_name_common                  'CONTCAR\(2)\(3)                       '
_cell_length_a                         12.331300
_cell_length_b                         12.829200
_cell_length_c                         19.994400
_cell_angle_alpha                      89.996696
_cell_angle_beta                       89.998299
_cell_angle_gamma                      89.999496
_cell_volume                           3163.128245
_space_group_name_H-M_alt              'P 1'
_space_group_IT_number                 1

loop_
_space_group_symop_operation_xyz
   'x, y, z'

loop_
   _atom_site_label
   _atom_site_occupancy
   _atom_site_fract_x
   _atom_site_fract_y
   _atom_site_fract_z
   _atom_site_adp_type
   _atom_site_U_iso_or_equiv
   _atom_site_type_symbol
   C1         1.0     0.057150     0.055655     0.048498    Uiso  ? C
   C2         1.0     0.157300     0.110674     0.048816    Uiso  ? C
   C3         1.0     0.156783     0.221597     0.048180    Uiso  ? C
   C4         1.0     0.056619     0.277176     0.047350    Uiso  ? C
   C5         1.0     0.257997     0.055504     0.050618    Uiso  ? C
   C6         1.0     0.358292     0.111509     0.052862    Uiso  ? C
   C7         1.0     0.357940     0.223632     0.052451    Uiso  ? C
   C8         1.0     0.256561     0.277087     0.049446    Uiso  ? C
   C9         1.0     0.458038     0.055136     0.055866    Uiso  ? C
   C10        1.0     0.558078     0.112749     0.057862    Uiso  ? C
   C11        1.0     0.557868     0.225172     0.058419    Uiso  ? C
   C12        1.0     0.457637     0.282550     0.055729    Uiso  ? C
   C13        1.0     0.657537     0.053517     0.057342    Uiso  ? C
   C14        1.0     0.756754     0.110507     0.054091    Uiso  ? C
   C15        1.0     0.757595     0.222501     0.054271    Uiso  ? C
   C16        1.0     0.659542     0.281768     0.058739    Uiso  ? C
   C17        1.0     0.856586     0.055105     0.051137    Uiso  ? C
   C18        1.0     0.956829     0.110612     0.049113    Uiso  ? C
   C19        1.0     0.957017     0.221718     0.048586    Uiso  ? C
   C20        1.0     0.857192     0.277593     0.050771    Uiso  ? C
   C21        1.0     0.055496     0.388629     0.046718    Uiso  ? C
   C22        1.0     0.154177     0.444010     0.047048    Uiso  ? C
   C23        1.0     0.153830     0.555419     0.047038    Uiso  ? C
   C24        1.0     0.054741     0.611103     0.046793    Uiso  ? C
   C25        1.0     0.253717     0.387782     0.048836    Uiso  ? C
   C26        1.0     0.351319     0.443989     0.051828    Uiso  ? C
   C27        1.0     0.351373     0.555724     0.053346    Uiso  ? C
   C28        1.0     0.253103     0.611549     0.049350    Uiso  ? C
   C29        1.0     0.757591     0.444728     0.056447    Uiso  ? C
   C30        1.0     0.857105     0.389068     0.050551    Uiso  ? C
   C31        1.0     0.955990     0.444962     0.047633    Uiso  ? C
   C32        1.0     0.955069     0.555830     0.047713    Uiso  ? C
   C33        1.0     0.853792     0.610859     0.051000    Uiso  ? C
   C34        1.0     0.056421     0.722511     0.047355    Uiso  ? C
   C35        1.0     0.155768     0.778121     0.048128    Uiso  ? C
   C36        1.0     0.157076     0.889253     0.048757    Uiso  ? C
   C37        1.0     0.057292     0.944795     0.048372    Uiso  ? C
   C38        1.0     0.255081     0.722206     0.049724    Uiso  ? C
   C39        1.0     0.355571     0.775506     0.053451    Uiso  ? C
   C40        1.0     0.357496     0.887327     0.053639    Uiso  ? C
   C41        1.0     0.257784     0.944115     0.050724    Uiso  ? C
   C42        1.0     0.454226     0.716149     0.060284    Uiso  ? C
   C43        1.0     0.557237     0.883262     0.061456    Uiso  ? C
   C44        1.0     0.457785     0.942649     0.056784    Uiso  ? C
   C45        1.0     0.758488     0.885714     0.055114    Uiso  ? C
   C46        1.0     0.657663     0.941005     0.058857    Uiso  ? C
   C47        1.0     0.857660     0.724513     0.050745    Uiso  ? C
   C48        1.0     0.957436     0.778623     0.048515    Uiso  ? C
   C49        1.0     0.957516     0.889482     0.048951    Uiso  ? C
   C50        1.0     0.857067     0.943639     0.051148    Uiso  ? C
   C51        1.0     0.452091     0.393934     0.055574    Uiso  ? C
   C52        1.0     0.753725     0.557939     0.058242    Uiso  ? C
   C53        1.0     0.552733     0.772824     0.067845    Uiso  ? C
   C54        1.0     0.452204     0.604445     0.060924    Uiso  ? C
   N1         1.0     0.663107     0.388053     0.061661    Uiso  ? N
   N2         1.0     0.761645     0.777498     0.055513    Uiso  ? N
   Fe1        1.0     0.664741     0.679584     0.095237    Uiso  ? Fe
   Ni1        1.0     0.559689     0.494574     0.073637    Uiso  ? Ni
   O1         1.0     0.589899     0.520759     0.167953    Uiso  ? O
   O2         1.0     0.626428     0.621277     0.170972    Uiso  ? O
