
#======================================================================
# CRYSTAL DATA
#----------------------------------------------------------------------
data_VESTA_phase_1

_chemical_name_common                  'POSCAR\(2)                            '
_cell_length_a                         12.331300
_cell_length_b                         12.829200
_cell_length_c                         19.994400
_cell_angle_alpha                      89.996696
_cell_angle_beta                       89.998299
_cell_angle_gamma                      89.999496
_cell_volume                           3163.128245
_space_group_name_H-M_alt              'P 1'
_space_group_IT_number                 1

loop_
_space_group_symop_operation_xyz
   'x, y, z'

loop_
   _atom_site_label
   _atom_site_occupancy
   _atom_site_fract_x
   _atom_site_fract_y
   _atom_site_fract_z
   _atom_site_adp_type
   _atom_site_U_iso_or_equiv
   _atom_site_type_symbol
   C1         1.0     0.056465     0.054183     0.055777    Uiso  ? C
   C2         1.0     0.156460     0.110442     0.055795    Uiso  ? C
   C3         1.0     0.157193     0.221403     0.055777    Uiso  ? C
   C4         1.0     0.057289     0.276245     0.055760    Uiso  ? C
   C5         1.0     0.256774     0.055995     0.055805    Uiso  ? C
   C6         1.0     0.357076     0.112677     0.055770    Uiso  ? C
   C7         1.0     0.358003     0.224327     0.055733    Uiso  ? C
   C8         1.0     0.257085     0.277715     0.055763    Uiso  ? C
   C9         1.0     0.456557     0.056832     0.055742    Uiso  ? C
   C10        1.0     0.557679     0.112482     0.055691    Uiso  ? C
   C11        1.0     0.558251     0.224248     0.055667    Uiso  ? C
   C12        1.0     0.458500     0.282563     0.055676    Uiso  ? C
   C13        1.0     0.657202     0.053128     0.055667    Uiso  ? C
   C14        1.0     0.756890     0.109194     0.055679    Uiso  ? C
   C15        1.0     0.758462     0.220568     0.055680    Uiso  ? C
   C16        1.0     0.660194     0.279508     0.055658    Uiso  ? C
   C17        1.0     0.855895     0.052714     0.055698    Uiso  ? C
   C18        1.0     0.956451     0.108527     0.055733    Uiso  ? C
   C19        1.0     0.957897     0.219588     0.055726    Uiso  ? C
   C20        1.0     0.858707     0.275064     0.055694    Uiso  ? C
   C21        1.0     0.057375     0.387651     0.055760    Uiso  ? C
   C22        1.0     0.156065     0.443733     0.055772    Uiso  ? C
   C23        1.0     0.155642     0.555131     0.055783    Uiso  ? C
   C24        1.0     0.055407     0.609958     0.055773    Uiso  ? C
   C25        1.0     0.255884     0.388551     0.055762    Uiso  ? C
   C26        1.0     0.354632     0.444677     0.055725    Uiso  ? C
   C27        1.0     0.356221     0.556997     0.055725    Uiso  ? C
   C28        1.0     0.255515     0.611479     0.055775    Uiso  ? C
   C29        1.0     0.760836     0.440859     0.055647    Uiso  ? C
   C30        1.0     0.859951     0.385846     0.055690    Uiso  ? C
   C31        1.0     0.957762     0.443168     0.055731    Uiso  ? C
   C32        1.0     0.955561     0.554233     0.055734    Uiso  ? C
   C33        1.0     0.853216     0.607578     0.055679    Uiso  ? C
   C34        1.0     0.054961     0.721102     0.055782    Uiso  ? C
   C35        1.0     0.153981     0.777381     0.055806    Uiso  ? C
   C36        1.0     0.155422     0.888499     0.055818    Uiso  ? C
   C37        1.0     0.055602     0.943319     0.055791    Uiso  ? C
   C38        1.0     0.253668     0.722325     0.055786    Uiso  ? C
   C39        1.0     0.352382     0.777870     0.055755    Uiso  ? C
   C40        1.0     0.355110     0.889164     0.055778    Uiso  ? C
   C41        1.0     0.255561     0.944722     0.055817    Uiso  ? C
   C42        1.0     0.451875     0.721072     0.055682    Uiso  ? C
   C43        1.0     0.554193     0.888253     0.055676    Uiso  ? C
   C44        1.0     0.455084     0.945673     0.055739    Uiso  ? C
   C45        1.0     0.755720     0.882001     0.055638    Uiso  ? C
   C46        1.0     0.656506     0.941306     0.055646    Uiso  ? C
   C47        1.0     0.854975     0.721380     0.055684    Uiso  ? C
   C48        1.0     0.954999     0.776212     0.055741    Uiso  ? C
   C49        1.0     0.955751     0.887251     0.055746    Uiso  ? C
   C50        1.0     0.855058     0.940694     0.055686    Uiso  ? C
   C51        1.0     0.454993     0.393808     0.055661    Uiso  ? C
   C52        1.0     0.753472     0.551983     0.055632    Uiso  ? C
   C53        1.0     0.548398     0.780183     0.055635    Uiso  ? C
   C54        1.0     0.457918     0.608614     0.055666    Uiso  ? C
   N1         1.0     0.664845     0.385266     0.055635    Uiso  ? N
   N2         1.0     0.757404     0.772554     0.055624    Uiso  ? N
   Fe1        1.0     0.637611     0.667412     0.055621    Uiso  ? Fe
   Ni1        1.0     0.568782     0.493295     0.055628    Uiso  ? Ni
