
#======================================================================
# CRYSTAL DATA
#----------------------------------------------------------------------
data_VESTA_phase_1

_chemical_name_common                  'CONTCAR\(3)                           '
_cell_length_a                         12.331300
_cell_length_b                         12.829200
_cell_length_c                         19.994400
_cell_angle_alpha                      89.996696
_cell_angle_beta                       89.998299
_cell_angle_gamma                      89.999496
_cell_volume                           3163.128245
_space_group_name_H-M_alt              'P 1'
_space_group_IT_number                 1

loop_
_space_group_symop_operation_xyz
   'x, y, z'

loop_
   _atom_site_label
   _atom_site_occupancy
   _atom_site_fract_x
   _atom_site_fract_y
   _atom_site_fract_z
   _atom_site_adp_type
   _atom_site_U_iso_or_equiv
   _atom_site_type_symbol
   C1         1.0     0.056139     0.055358     0.051873    Uiso  ? C
   C2         1.0     0.156632     0.111176     0.051317    Uiso  ? C
   C3         1.0     0.156803     0.222041     0.050171    Uiso  ? C
   C4         1.0     0.056311     0.276612     0.050198    Uiso  ? C
   C5         1.0     0.256973     0.056262     0.052556    Uiso  ? C
   C6         1.0     0.357532     0.111796     0.055117    Uiso  ? C
   C7         1.0     0.357768     0.223843     0.054064    Uiso  ? C
   C8         1.0     0.256990     0.278124     0.050159    Uiso  ? C
   C9         1.0     0.457379     0.055184     0.058845    Uiso  ? C
   C10        1.0     0.557617     0.111449     0.062161    Uiso  ? C
   C11        1.0     0.558087     0.224920     0.062645    Uiso  ? C
   C12        1.0     0.457714     0.282332     0.057536    Uiso  ? C
   C13        1.0     0.655745     0.050494     0.063024    Uiso  ? C
   C14        1.0     0.754998     0.108708     0.061020    Uiso  ? C
   C15        1.0     0.756353     0.221535     0.061743    Uiso  ? C
   C16        1.0     0.658537     0.281812     0.065584    Uiso  ? C
   C17        1.0     0.855142     0.053323     0.057313    Uiso  ? C
   C18        1.0     0.955557     0.109397     0.054126    Uiso  ? C
   C19        1.0     0.956342     0.220671     0.053545    Uiso  ? C
   C20        1.0     0.856888     0.276199     0.057210    Uiso  ? C
   C21        1.0     0.056180     0.387783     0.048290    Uiso  ? C
   C22        1.0     0.155458     0.443840     0.046069    Uiso  ? C
   C23        1.0     0.155375     0.554864     0.044876    Uiso  ? C
   C24        1.0     0.056683     0.610682     0.045703    Uiso  ? C
   C25        1.0     0.255358     0.389351     0.047785    Uiso  ? C
   C26        1.0     0.354446     0.446147     0.049715    Uiso  ? C
   C27        1.0     0.353404     0.558612     0.049896    Uiso  ? C
   C28        1.0     0.254024     0.611960     0.046275    Uiso  ? C
   C29        1.0     0.759692     0.444302     0.064271    Uiso  ? C
   C30        1.0     0.857950     0.387657     0.056436    Uiso  ? C
   C31        1.0     0.956952     0.443538     0.050733    Uiso  ? C
   C32        1.0     0.957505     0.554855     0.049435    Uiso  ? C
   C33        1.0     0.858903     0.610094     0.055542    Uiso  ? C
   C34        1.0     0.056745     0.721738     0.046426    Uiso  ? C
   C35        1.0     0.155144     0.778520     0.046781    Uiso  ? C
   C36        1.0     0.156008     0.889414     0.049098    Uiso  ? C
   C37        1.0     0.056107     0.944665     0.050619    Uiso  ? C
   C38        1.0     0.253663     0.722692     0.047339    Uiso  ? C
   C39        1.0     0.352544     0.777335     0.051863    Uiso  ? C
   C40        1.0     0.355137     0.888572     0.054090    Uiso  ? C
   C41        1.0     0.256029     0.944836     0.051577    Uiso  ? C
   C42        1.0     0.449806     0.719442     0.057804    Uiso  ? C
   C43        1.0     0.552328     0.881027     0.063747    Uiso  ? C
   C44        1.0     0.455868     0.942715     0.058997    Uiso  ? C
   C45        1.0     0.757317     0.880684     0.060969    Uiso  ? C
   C46        1.0     0.654966     0.936034     0.063745    Uiso  ? C
   C47        1.0     0.859864     0.722521     0.054585    Uiso  ? C
   C48        1.0     0.957859     0.777704     0.049923    Uiso  ? C
   C49        1.0     0.956683     0.888592     0.052054    Uiso  ? C
   C50        1.0     0.855515     0.941441     0.056719    Uiso  ? C
   C51        1.0     0.453910     0.393187     0.055092    Uiso  ? C
   C52        1.0     0.759541     0.556615     0.066123    Uiso  ? C
   N1         1.0     0.545292     0.772411     0.066753    Uiso  ? N
   N2         1.0     0.762667     0.772956     0.061028    Uiso  ? N
   N3         1.0     0.450098     0.610896     0.056325    Uiso  ? N
   N4         1.0     0.662955     0.390112     0.069905    Uiso  ? N
   Fe1        1.0     0.652035     0.661068     0.080026    Uiso  ? Fe
   Ni1        1.0     0.558990     0.494756     0.070767    Uiso  ? Ni
   H1         1.0     0.611205     0.573154     0.131170    Uiso  ? H
