
#======================================================================
# CRYSTAL DATA
#----------------------------------------------------------------------
data_VESTA_phase_1

_chemical_name_common                  'CONTCAR\(3)                           '
_cell_length_a                         12.331300
_cell_length_b                         12.829200
_cell_length_c                         19.994400
_cell_angle_alpha                      89.996696
_cell_angle_beta                       89.998299
_cell_angle_gamma                      89.999496
_cell_volume                           3163.128245
_space_group_name_H-M_alt              'P 1'
_space_group_IT_number                 1

loop_
_space_group_symop_operation_xyz
   'x, y, z'

loop_
   _atom_site_label
   _atom_site_occupancy
   _atom_site_fract_x
   _atom_site_fract_y
   _atom_site_fract_z
   _atom_site_adp_type
   _atom_site_U_iso_or_equiv
   _atom_site_type_symbol
   C1         1.0     0.056379     0.055827     0.049405    Uiso  ? C
   C2         1.0     0.156864     0.111472     0.049341    Uiso  ? C
   C3         1.0     0.156951     0.222388     0.048297    Uiso  ? C
   C4         1.0     0.056384     0.277139     0.047879    Uiso  ? C
   C5         1.0     0.257295     0.056331     0.051278    Uiso  ? C
   C6         1.0     0.357834     0.111812     0.054124    Uiso  ? C
   C7         1.0     0.357971     0.223994     0.053191    Uiso  ? C
   C8         1.0     0.257160     0.278363     0.049062    Uiso  ? C
   C9         1.0     0.457644     0.055060     0.058103    Uiso  ? C
   C10        1.0     0.557765     0.111558     0.060974    Uiso  ? C
   C11        1.0     0.558086     0.224895     0.061494    Uiso  ? C
   C12        1.0     0.457899     0.282313     0.057272    Uiso  ? C
   C13        1.0     0.655923     0.050991     0.061054    Uiso  ? C
   C14        1.0     0.755147     0.109200     0.058024    Uiso  ? C
   C15        1.0     0.756430     0.221943     0.058534    Uiso  ? C
   C16        1.0     0.658556     0.281934     0.063010    Uiso  ? C
   C17        1.0     0.855345     0.053975     0.053962    Uiso  ? C
   C18        1.0     0.955684     0.110098     0.051085    Uiso  ? C
   C19        1.0     0.956316     0.221379     0.050594    Uiso  ? C
   C20        1.0     0.856664     0.277030     0.053909    Uiso  ? C
   C21        1.0     0.055996     0.388270     0.046308    Uiso  ? C
   C22        1.0     0.155413     0.444194     0.045234    Uiso  ? C
   C23        1.0     0.155240     0.555198     0.044608    Uiso  ? C
   C24        1.0     0.056345     0.610979     0.044726    Uiso  ? C
   C25        1.0     0.255435     0.389559     0.047334    Uiso  ? C
   C26        1.0     0.354351     0.446523     0.050406    Uiso  ? C
   C27        1.0     0.353211     0.558775     0.051340    Uiso  ? C
   C28        1.0     0.253925     0.612160     0.046957    Uiso  ? C
   C29        1.0     0.758077     0.445359     0.059555    Uiso  ? C
   C30        1.0     0.857118     0.388526     0.052910    Uiso  ? C
   C31        1.0     0.956461     0.444127     0.047977    Uiso  ? C
   C32        1.0     0.956980     0.555288     0.046960    Uiso  ? C
   C33        1.0     0.857433     0.610403     0.051389    Uiso  ? C
   C34        1.0     0.056998     0.722120     0.045412    Uiso  ? C
   C35        1.0     0.155661     0.778680     0.046340    Uiso  ? C
   C36        1.0     0.156412     0.889608     0.048118    Uiso  ? C
   C37        1.0     0.056467     0.945022     0.048569    Uiso  ? C
   C38        1.0     0.254360     0.722798     0.047862    Uiso  ? C
   C39        1.0     0.353763     0.776943     0.052822    Uiso  ? C
   C40        1.0     0.355757     0.888360     0.054231    Uiso  ? C
   C41        1.0     0.256571     0.944846     0.050914    Uiso  ? C
   C42        1.0     0.451291     0.718580     0.059656    Uiso  ? C
   C43        1.0     0.553099     0.880684     0.063680    Uiso  ? C
   C44        1.0     0.456414     0.942429     0.058793    Uiso  ? C
   C45        1.0     0.757478     0.882094     0.057793    Uiso  ? C
   C46        1.0     0.655233     0.936613     0.062092    Uiso  ? C
   C47        1.0     0.859783     0.723072     0.051099    Uiso  ? C
   C48        1.0     0.958090     0.778161     0.047806    Uiso  ? C
   C49        1.0     0.956946     0.889067     0.049443    Uiso  ? C
   C50        1.0     0.855806     0.942216     0.053212    Uiso  ? C
   C51        1.0     0.453921     0.393449     0.056330    Uiso  ? C
   C52        1.0     0.757216     0.557851     0.059989    Uiso  ? C
   N1         1.0     0.547259     0.771702     0.068160    Uiso  ? N
   N2         1.0     0.762844     0.774337     0.057877    Uiso  ? N
   N3         1.0     0.450133     0.610187     0.058634    Uiso  ? N
   N4         1.0     0.662181     0.389935     0.066167    Uiso  ? N
   Fe1        1.0     0.662777     0.670787     0.089602    Uiso  ? Fe
   Ni1        1.0     0.557400     0.492884     0.075028    Uiso  ? Ni
   O1         1.0     0.607050     0.582556     0.154826    Uiso  ? O
   H1         1.0     0.541848     0.612314     0.174990    Uiso  ? H
