
#======================================================================
# CRYSTAL DATA
#----------------------------------------------------------------------
data_VESTA_phase_1

_chemical_name_common                  'CONTCAR\(3)                           '
_cell_length_a                         12.331300
_cell_length_b                         12.829200
_cell_length_c                         19.994400
_cell_angle_alpha                      89.996696
_cell_angle_beta                       89.998299
_cell_angle_gamma                      89.999496
_cell_volume                           3163.128245
_space_group_name_H-M_alt              'P 1'
_space_group_IT_number                 1

loop_
_space_group_symop_operation_xyz
   'x, y, z'

loop_
   _atom_site_label
   _atom_site_occupancy
   _atom_site_fract_x
   _atom_site_fract_y
   _atom_site_fract_z
   _atom_site_adp_type
   _atom_site_U_iso_or_equiv
   _atom_site_type_symbol
   C1         1.0     0.056524     0.055360     0.051258    Uiso  ? C
   C2         1.0     0.156982     0.110871     0.050675    Uiso  ? C
   C3         1.0     0.156997     0.221841     0.049490    Uiso  ? C
   C4         1.0     0.056361     0.276624     0.049463    Uiso  ? C
   C5         1.0     0.257443     0.055694     0.051880    Uiso  ? C
   C6         1.0     0.357963     0.111122     0.054799    Uiso  ? C
   C7         1.0     0.357975     0.223355     0.053844    Uiso  ? C
   C8         1.0     0.257127     0.277709     0.049445    Uiso  ? C
   C9         1.0     0.457813     0.054283     0.058793    Uiso  ? C
   C10        1.0     0.557734     0.110857     0.062544    Uiso  ? C
   C11        1.0     0.558002     0.224616     0.063251    Uiso  ? C
   C12        1.0     0.457769     0.281757     0.058204    Uiso  ? C
   C13        1.0     0.655871     0.050361     0.063556    Uiso  ? C
   C14        1.0     0.755090     0.108746     0.061287    Uiso  ? C
   C15        1.0     0.756235     0.221708     0.061806    Uiso  ? C
   C16        1.0     0.658278     0.281804     0.065673    Uiso  ? C
   C17        1.0     0.855468     0.053710     0.057123    Uiso  ? C
   C18        1.0     0.955818     0.109627     0.053745    Uiso  ? C
   C19        1.0     0.956386     0.220901     0.053161    Uiso  ? C
   C20        1.0     0.856704     0.276461     0.056986    Uiso  ? C
   C21        1.0     0.055950     0.387763     0.047054    Uiso  ? C
   C22        1.0     0.155220     0.443617     0.044530    Uiso  ? C
   C23        1.0     0.154956     0.554719     0.043188    Uiso  ? C
   C24        1.0     0.056103     0.610616     0.043999    Uiso  ? C
   C25        1.0     0.255298     0.388975     0.046588    Uiso  ? C
   C26        1.0     0.354046     0.445873     0.048876    Uiso  ? C
   C27        1.0     0.352953     0.558203     0.048358    Uiso  ? C
   C28        1.0     0.253593     0.611676     0.044654    Uiso  ? C
   C29        1.0     0.758521     0.444597     0.063134    Uiso  ? C
   C30        1.0     0.857407     0.387950     0.055920    Uiso  ? C
   C31        1.0     0.956460     0.443655     0.049513    Uiso  ? C
   C32        1.0     0.956878     0.554938     0.047825    Uiso  ? C
   C33        1.0     0.857831     0.610361     0.053915    Uiso  ? C
   C34        1.0     0.056843     0.721829     0.044699    Uiso  ? C
   C35        1.0     0.155537     0.778232     0.045194    Uiso  ? C
   C36        1.0     0.156500     0.889182     0.047995    Uiso  ? C
   C37        1.0     0.056603     0.944606     0.049763    Uiso  ? C
   C38        1.0     0.254312     0.722321     0.045909    Uiso  ? C
   C39        1.0     0.353808     0.776224     0.051131    Uiso  ? C
   C40        1.0     0.355960     0.887599     0.053419    Uiso  ? C
   C41        1.0     0.256714     0.944223     0.050753    Uiso  ? C
   C42        1.0     0.451609     0.717705     0.057084    Uiso  ? C
   C43        1.0     0.553243     0.879241     0.063719    Uiso  ? C
   C44        1.0     0.456609     0.941393     0.058611    Uiso  ? C
   C45        1.0     0.758002     0.881648     0.061754    Uiso  ? C
   C46        1.0     0.655262     0.935717     0.064498    Uiso  ? C
   C47        1.0     0.859882     0.723163     0.054103    Uiso  ? C
   C48        1.0     0.958006     0.777935     0.048702    Uiso  ? C
   C49        1.0     0.957019     0.888811     0.051287    Uiso  ? C
   C50        1.0     0.856056     0.941937     0.056379    Uiso  ? C
   C51        1.0     0.453618     0.392999     0.056237    Uiso  ? C
   C52        1.0     0.758892     0.556681     0.063961    Uiso  ? C
   N1         1.0     0.547393     0.770139     0.066106    Uiso  ? N
   N2         1.0     0.763634     0.774241     0.063151    Uiso  ? N
   N3         1.0     0.449642     0.609382     0.054401    Uiso  ? N
   N4         1.0     0.661846     0.390335     0.068599    Uiso  ? N
   Fe1        1.0     0.662286     0.664584     0.094292    Uiso  ? Fe
   Ni1        1.0     0.555916     0.494153     0.075191    Uiso  ? Ni
   O1         1.0     0.596763     0.583380     0.147285    Uiso  ? O
