
#======================================================================
# CRYSTAL DATA
#----------------------------------------------------------------------
data_VESTA_phase_1

_chemical_name_common                  'CONTCAR\(3)                           '
_cell_length_a                         12.331300
_cell_length_b                         12.829200
_cell_length_c                         19.994400
_cell_angle_alpha                      89.996696
_cell_angle_beta                       89.998299
_cell_angle_gamma                      89.999496
_cell_volume                           3163.128245
_space_group_name_H-M_alt              'P 1'
_space_group_IT_number                 1

loop_
_space_group_symop_operation_xyz
   'x, y, z'

loop_
   _atom_site_label
   _atom_site_occupancy
   _atom_site_fract_x
   _atom_site_fract_y
   _atom_site_fract_z
   _atom_site_adp_type
   _atom_site_U_iso_or_equiv
   _atom_site_type_symbol
   C1         1.0     0.056766     0.054838     0.052163    Uiso  ? C
   C2         1.0     0.157147     0.110813     0.051691    Uiso  ? C
   C3         1.0     0.157431     0.221848     0.051501    Uiso  ? C
   C4         1.0     0.056890     0.276381     0.052022    Uiso  ? C
   C5         1.0     0.257541     0.055929     0.051831    Uiso  ? C
   C6         1.0     0.358138     0.111578     0.053049    Uiso  ? C
   C7         1.0     0.358542     0.223853     0.052656    Uiso  ? C
   C8         1.0     0.257584     0.278075     0.051303    Uiso  ? C
   C9         1.0     0.457904     0.054678     0.054849    Uiso  ? C
   C10        1.0     0.558073     0.110817     0.057187    Uiso  ? C
   C11        1.0     0.558627     0.224044     0.057375    Uiso  ? C
   C12        1.0     0.458735     0.282253     0.054059    Uiso  ? C
   C13        1.0     0.656195     0.050338     0.058597    Uiso  ? C
   C14        1.0     0.755573     0.107971     0.057848    Uiso  ? C
   C15        1.0     0.756930     0.220555     0.058187    Uiso  ? C
   C16        1.0     0.658948     0.280092     0.059787    Uiso  ? C
   C17        1.0     0.855801     0.052784     0.055734    Uiso  ? C
   C18        1.0     0.956205     0.108900     0.053720    Uiso  ? C
   C19        1.0     0.956992     0.220178     0.053776    Uiso  ? C
   C20        1.0     0.857429     0.275553     0.055913    Uiso  ? C
   C21        1.0     0.056607     0.387642     0.051451    Uiso  ? C
   C22        1.0     0.155966     0.443679     0.050239    Uiso  ? C
   C23        1.0     0.155415     0.554684     0.049361    Uiso  ? C
   C24        1.0     0.056062     0.610158     0.050127    Uiso  ? C
   C25        1.0     0.256093     0.389356     0.050488    Uiso  ? C
   C26        1.0     0.355383     0.446255     0.050101    Uiso  ? C
   C27        1.0     0.354758     0.558508     0.049181    Uiso  ? C
   C28        1.0     0.254676     0.611544     0.048759    Uiso  ? C
   C29        1.0     0.759106     0.443025     0.060827    Uiso  ? C
   C30        1.0     0.858253     0.386981     0.055846    Uiso  ? C
   C31        1.0     0.957021     0.443282     0.053083    Uiso  ? C
   C32        1.0     0.956130     0.554633     0.052801    Uiso  ? C
   C33        1.0     0.855848     0.609250     0.056504    Uiso  ? C
   C34        1.0     0.056594     0.721193     0.049647    Uiso  ? C
   C35        1.0     0.155327     0.777805     0.048994    Uiso  ? C
   C36        1.0     0.156416     0.888833     0.050057    Uiso  ? C
   C37        1.0     0.056505     0.943952     0.051461    Uiso  ? C
   C38        1.0     0.254138     0.722219     0.048427    Uiso  ? C
   C39        1.0     0.353514     0.776703     0.049695    Uiso  ? C
   C40        1.0     0.355810     0.888097     0.051559    Uiso  ? C
   C41        1.0     0.256599     0.944370     0.050891    Uiso  ? C
   C42        1.0     0.451520     0.718978     0.051743    Uiso  ? C
   C43        1.0     0.553417     0.880973     0.057644    Uiso  ? C
   C44        1.0     0.456500     0.942193     0.054486    Uiso  ? C
   C45        1.0     0.757437     0.881094     0.059699    Uiso  ? C
   C46        1.0     0.655302     0.936142     0.059465    Uiso  ? C
   C47        1.0     0.858809     0.721807     0.056242    Uiso  ? C
   C48        1.0     0.957432     0.776831     0.051772    Uiso  ? C
   C49        1.0     0.956920     0.887823     0.052943    Uiso  ? C
   C50        1.0     0.856001     0.941080     0.055971    Uiso  ? C
   C51        1.0     0.455212     0.393449     0.051232    Uiso  ? C
   C52        1.0     0.754385     0.555483     0.062858    Uiso  ? C
   N1         1.0     0.547522     0.772116     0.058561    Uiso  ? N
   N2         1.0     0.762365     0.773545     0.063045    Uiso  ? N
   N3         1.0     0.452900     0.610543     0.049516    Uiso  ? N
   N4         1.0     0.663145     0.387937     0.062291    Uiso  ? N
   Fe1        1.0     0.652178     0.668120     0.085807    Uiso  ? Fe
   Ni1        1.0     0.564249     0.493738     0.054756    Uiso  ? Ni
   H1         1.0     0.612021     0.648477     0.163297    Uiso  ? H
   H2         1.0     0.605713     0.586435     0.143545    Uiso  ? H
