
#======================================================================
# CRYSTAL DATA
#----------------------------------------------------------------------
data_VESTA_phase_1

_chemical_name_common                  'CONTCAR\(3)                           '
_cell_length_a                         12.331300
_cell_length_b                         12.829200
_cell_length_c                         19.994400
_cell_angle_alpha                      89.996696
_cell_angle_beta                       89.998299
_cell_angle_gamma                      89.999496
_cell_volume                           3163.128245
_space_group_name_H-M_alt              'P 1'
_space_group_IT_number                 1

loop_
_space_group_symop_operation_xyz
   'x, y, z'

loop_
   _atom_site_label
   _atom_site_occupancy
   _atom_site_fract_x
   _atom_site_fract_y
   _atom_site_fract_z
   _atom_site_adp_type
   _atom_site_U_iso_or_equiv
   _atom_site_type_symbol
   C1         1.0     0.059934     0.056766     0.045851    Uiso  ? C
   C2         1.0     0.160078     0.113292     0.046255    Uiso  ? C
   C3         1.0     0.161269     0.224511     0.046479    Uiso  ? C
   C4         1.0     0.060837     0.278623     0.045318    Uiso  ? C
   C5         1.0     0.259781     0.058049     0.047068    Uiso  ? C
   C6         1.0     0.360724     0.112754     0.049835    Uiso  ? C
   C7         1.0     0.361456     0.224321     0.052042    Uiso  ? C
   C8         1.0     0.261805     0.280484     0.049044    Uiso  ? C
   C9         1.0     0.460372     0.056260     0.051260    Uiso  ? C
   C10        1.0     0.561233     0.111148     0.053945    Uiso  ? C
   C11        1.0     0.562059     0.223061     0.058286    Uiso  ? C
   C12        1.0     0.461581     0.280179     0.059307    Uiso  ? C
   C13        1.0     0.659646     0.050917     0.052378    Uiso  ? C
   C14        1.0     0.759379     0.108424     0.050506    Uiso  ? C
   C15        1.0     0.761302     0.220397     0.050954    Uiso  ? C
   C16        1.0     0.663770     0.278656     0.057344    Uiso  ? C
   C17        1.0     0.859404     0.053998     0.048341    Uiso  ? C
   C18        1.0     0.959605     0.110745     0.046383    Uiso  ? C
   C19        1.0     0.960950     0.221919     0.045942    Uiso  ? C
   C20        1.0     0.861106     0.276565     0.048033    Uiso  ? C
   C21        1.0     0.061132     0.389787     0.045112    Uiso  ? C
   C22        1.0     0.161188     0.445703     0.045675    Uiso  ? C
   C23        1.0     0.160223     0.556839     0.045728    Uiso  ? C
   C24        1.0     0.059707     0.611414     0.045877    Uiso  ? C
   C25        1.0     0.262298     0.392157     0.048558    Uiso  ? C
   C26        1.0     0.362998     0.448945     0.054782    Uiso  ? C
   C27        1.0     0.363007     0.562859     0.051500    Uiso  ? C
   C28        1.0     0.259828     0.613673     0.046873    Uiso  ? C
   C29        1.0     0.761651     0.443096     0.055488    Uiso  ? C
   C30        1.0     0.861391     0.387907     0.048678    Uiso  ? C
   C31        1.0     0.960611     0.444686     0.046503    Uiso  ? C
   C32        1.0     0.959354     0.555866     0.047739    Uiso  ? C
   C33        1.0     0.857808     0.609458     0.052389    Uiso  ? C
   C34        1.0     0.058905     0.722637     0.045775    Uiso  ? C
   C35        1.0     0.157304     0.779433     0.044936    Uiso  ? C
   C36        1.0     0.158507     0.890674     0.045169    Uiso  ? C
   C37        1.0     0.059151     0.945721     0.045848    Uiso  ? C
   C38        1.0     0.256539     0.724470     0.045462    Uiso  ? C
   C39        1.0     0.353972     0.781599     0.046013    Uiso  ? C
   C40        1.0     0.357206     0.891870     0.046637    Uiso  ? C
   C41        1.0     0.258122     0.947175     0.045985    Uiso  ? C
   C42        1.0     0.451729     0.725903     0.047842    Uiso  ? C
   C43        1.0     0.555735     0.883315     0.050191    Uiso  ? C
   C44        1.0     0.458555     0.944709     0.049125    Uiso  ? C
   C45        1.0     0.760646     0.882380     0.052559    Uiso  ? C
   C46        1.0     0.658536     0.937804     0.052177    Uiso  ? C
   C47        1.0     0.859543     0.723558     0.051571    Uiso  ? C
   C48        1.0     0.959592     0.778016     0.047546    Uiso  ? C
   C49        1.0     0.959610     0.888983     0.047425    Uiso  ? C
   C50        1.0     0.859132     0.942429     0.049343    Uiso  ? C
   C51        1.0     0.457418     0.390395     0.067019    Uiso  ? C
   C52        1.0     0.757706     0.554771     0.058499    Uiso  ? C
   N1         1.0     0.548908     0.776563     0.048680    Uiso  ? N
   N2         1.0     0.764403     0.775529     0.055332    Uiso  ? N
   N3         1.0     0.456751     0.619936     0.051460    Uiso  ? N
   N4         1.0     0.667551     0.385056     0.063307    Uiso  ? N
   Fe1        1.0     0.642469     0.657836     0.085955    Uiso  ? Fe
   Ni1        1.0     0.566507     0.456392     0.111325    Uiso  ? Ni
   O1         1.0     0.518645     0.500007     0.189770    Uiso  ? O
   O2         1.0     0.632218     0.690817     0.175624    Uiso  ? O
   H1         1.0     0.675840     0.649286     0.206318    Uiso  ? H
   H2         1.0     0.521742     0.576556     0.191824    Uiso  ? H
