
#======================================================================
# CRYSTAL DATA
#----------------------------------------------------------------------
data_VESTA_phase_1

_chemical_name_common                  'CONTCAR\(3)                           '
_cell_length_a                         12.331300
_cell_length_b                         12.829200
_cell_length_c                         19.994400
_cell_angle_alpha                      89.996696
_cell_angle_beta                       89.998299
_cell_angle_gamma                      89.999496
_cell_volume                           3163.128245
_space_group_name_H-M_alt              'P 1'
_space_group_IT_number                 1

loop_
_space_group_symop_operation_xyz
   'x, y, z'

loop_
   _atom_site_label
   _atom_site_occupancy
   _atom_site_fract_x
   _atom_site_fract_y
   _atom_site_fract_z
   _atom_site_adp_type
   _atom_site_U_iso_or_equiv
   _atom_site_type_symbol
   C1         1.0     0.057518     0.055732     0.050146    Uiso  ? C
   C2         1.0     0.157805     0.111638     0.050180    Uiso  ? C
   C3         1.0     0.158105     0.222724     0.049631    Uiso  ? C
   C4         1.0     0.057628     0.277278     0.048773    Uiso  ? C
   C5         1.0     0.257988     0.056522     0.051275    Uiso  ? C
   C6         1.0     0.358586     0.111938     0.053187    Uiso  ? C
   C7         1.0     0.358859     0.224020     0.053314    Uiso  ? C
   C8         1.0     0.258232     0.278754     0.050696    Uiso  ? C
   C9         1.0     0.458301     0.055166     0.055386    Uiso  ? C
   C10        1.0     0.558538     0.111040     0.057170    Uiso  ? C
   C11        1.0     0.559042     0.224115     0.057830    Uiso  ? C
   C12        1.0     0.459028     0.281856     0.056656    Uiso  ? C
   C13        1.0     0.656760     0.050876     0.057229    Uiso  ? C
   C14        1.0     0.756265     0.108643     0.055043    Uiso  ? C
   C15        1.0     0.757652     0.220992     0.054442    Uiso  ? C
   C16        1.0     0.659565     0.280216     0.057271    Uiso  ? C
   C17        1.0     0.856740     0.054080     0.052894    Uiso  ? C
   C18        1.0     0.957056     0.109964     0.050831    Uiso  ? C
   C19        1.0     0.957804     0.221047     0.050051    Uiso  ? C
   C20        1.0     0.858051     0.275967     0.051338    Uiso  ? C
   C21        1.0     0.057268     0.388447     0.047892    Uiso  ? C
   C22        1.0     0.156547     0.444436     0.048115    Uiso  ? C
   C23        1.0     0.155900     0.555464     0.047906    Uiso  ? C
   C24        1.0     0.056443     0.610822     0.047609    Uiso  ? C
   C25        1.0     0.256835     0.390129     0.049844    Uiso  ? C
   C26        1.0     0.355961     0.447113     0.052716    Uiso  ? C
   C27        1.0     0.355305     0.559502     0.052849    Uiso  ? C
   C28        1.0     0.255032     0.612253     0.049585    Uiso  ? C
   C29        1.0     0.759516     0.443073     0.053131    Uiso  ? C
   C30        1.0     0.858627     0.387251     0.050189    Uiso  ? C
   C31        1.0     0.957435     0.443986     0.048259    Uiso  ? C
   C32        1.0     0.956566     0.555267     0.048587    Uiso  ? C
   C33        1.0     0.855544     0.609572     0.051292    Uiso  ? C
   C34        1.0     0.057041     0.722035     0.047870    Uiso  ? C
   C35        1.0     0.155703     0.778538     0.048386    Uiso  ? C
   C36        1.0     0.156915     0.889604     0.049352    Uiso  ? C
   C37        1.0     0.057250     0.944883     0.049842    Uiso  ? C
   C38        1.0     0.254436     0.722933     0.049476    Uiso  ? C
   C39        1.0     0.353431     0.777676     0.051814    Uiso  ? C
   C40        1.0     0.356105     0.888871     0.052497    Uiso  ? C
   C41        1.0     0.256976     0.945113     0.050846    Uiso  ? C
   C42        1.0     0.451375     0.720198     0.055784    Uiso  ? C
   C43        1.0     0.553812     0.881332     0.058124    Uiso  ? C
   C44        1.0     0.456901     0.942761     0.055250    Uiso  ? C
   C45        1.0     0.758826     0.883082     0.057379    Uiso  ? C
   C46        1.0     0.656006     0.936957     0.058434    Uiso  ? C
   C47        1.0     0.858863     0.723363     0.052822    Uiso  ? C
   C48        1.0     0.958148     0.777803     0.049674    Uiso  ? C
   C49        1.0     0.957654     0.888809     0.050851    Uiso  ? C
   C50        1.0     0.857116     0.942617     0.053358    Uiso  ? C
   C51        1.0     0.454901     0.392929     0.057927    Uiso  ? C
   C52        1.0     0.755177     0.554565     0.053721    Uiso  ? C
   N1         1.0     0.547244     0.772999     0.059774    Uiso  ? N
   N2         1.0     0.763896     0.776246     0.059686    Uiso  ? N
   N3         1.0     0.452334     0.611930     0.056630    Uiso  ? N
   N4         1.0     0.663315     0.387640     0.057548    Uiso  ? N
   Fe1        1.0     0.656056     0.665783     0.088443    Uiso  ? Fe
   Ni1        1.0     0.562680     0.489707     0.074970    Uiso  ? Ni
   O1         1.0     0.584586     0.531016     0.168217    Uiso  ? O
   O2         1.0     0.607251     0.635960     0.174033    Uiso  ? O
