
#======================================================================
# CRYSTAL DATA
#----------------------------------------------------------------------
data_VESTA_phase_1

_chemical_name_common                  'POSCAR                                '
_cell_length_a                         12.331300
_cell_length_b                         12.829200
_cell_length_c                         19.994400
_cell_angle_alpha                      89.996696
_cell_angle_beta                       89.998299
_cell_angle_gamma                      89.999496
_cell_volume                           3163.128245
_space_group_name_H-M_alt              'P 1'
_space_group_IT_number                 1

loop_
_space_group_symop_operation_xyz
   'x, y, z'

loop_
   _atom_site_label
   _atom_site_occupancy
   _atom_site_fract_x
   _atom_site_fract_y
   _atom_site_fract_z
   _atom_site_adp_type
   _atom_site_U_iso_or_equiv
   _atom_site_type_symbol
   C1         1.0     0.056166     0.054751     0.055797    Uiso  ? C
   C2         1.0     0.156587     0.111305     0.055817    Uiso  ? C
   C3         1.0     0.157604     0.222319     0.055795    Uiso  ? C
   C4         1.0     0.057273     0.276471     0.055765    Uiso  ? C
   C5         1.0     0.256691     0.056820     0.055831    Uiso  ? C
   C6         1.0     0.357418     0.112718     0.055780    Uiso  ? C
   C7         1.0     0.358579     0.224602     0.055736    Uiso  ? C
   C8         1.0     0.257957     0.278960     0.055772    Uiso  ? C
   C9         1.0     0.456987     0.056051     0.055750    Uiso  ? C
   C10        1.0     0.557785     0.111135     0.055693    Uiso  ? C
   C11        1.0     0.558829     0.223815     0.055663    Uiso  ? C
   C12        1.0     0.459375     0.282626     0.055671    Uiso  ? C
   C13        1.0     0.655954     0.050550     0.055661    Uiso  ? C
   C14        1.0     0.755593     0.107842     0.055669    Uiso  ? C
   C15        1.0     0.757512     0.220024     0.055654    Uiso  ? C
   C16        1.0     0.659386     0.279431     0.055634    Uiso  ? C
   C17        1.0     0.855165     0.051836     0.055696    Uiso  ? C
   C18        1.0     0.955673     0.108434     0.055734    Uiso  ? C
   C19        1.0     0.957165     0.219861     0.055718    Uiso  ? C
   C20        1.0     0.857895     0.275195     0.055666    Uiso  ? C
   C21        1.0     0.057650     0.387541     0.055762    Uiso  ? C
   C22        1.0     0.156972     0.444050     0.055794    Uiso  ? C
   C23        1.0     0.156505     0.554915     0.055806    Uiso  ? C
   C24        1.0     0.056615     0.609900     0.055786    Uiso  ? C
   C25        1.0     0.257335     0.390240     0.055770    Uiso  ? C
   C26        1.0     0.357141     0.447513     0.055707    Uiso  ? C
   C27        1.0     0.356859     0.559706     0.055716    Uiso  ? C
   C28        1.0     0.255814     0.612058     0.055793    Uiso  ? C
   C29        1.0     0.760308     0.442769     0.055605    Uiso  ? C
   C30        1.0     0.859100     0.386540     0.055648    Uiso  ? C
   C31        1.0     0.958023     0.442947     0.055707    Uiso  ? C
   C32        1.0     0.957022     0.553849     0.055719    Uiso  ? C
   C33        1.0     0.855846     0.607690     0.055661    Uiso  ? C
   C34        1.0     0.055729     0.720831     0.055801    Uiso  ? C
   C35        1.0     0.154180     0.777948     0.055842    Uiso  ? C
   C36        1.0     0.155258     0.889094     0.055851    Uiso  ? C
   C37        1.0     0.055299     0.943852     0.055813    Uiso  ? C
   C38        1.0     0.253140     0.722799     0.055821    Uiso  ? C
   C39        1.0     0.351488     0.778733     0.055784    Uiso  ? C
   C40        1.0     0.354174     0.889813     0.055809    Uiso  ? C
   C41        1.0     0.255107     0.945367     0.055849    Uiso  ? C
   C42        1.0     0.449349     0.722516     0.055692    Uiso  ? C
   C43        1.0     0.551661     0.884322     0.055661    Uiso  ? C
   C44        1.0     0.454826     0.944351     0.055750    Uiso  ? C
   C45        1.0     0.755180     0.879315     0.055647    Uiso  ? C
   C46        1.0     0.654588     0.936842     0.055642    Uiso  ? C
   C47        1.0     0.857455     0.720131     0.055671    Uiso  ? C
   C48        1.0     0.956017     0.776006     0.055747    Uiso  ? C
   C49        1.0     0.955694     0.887096     0.055757    Uiso  ? C
   C50        1.0     0.854355     0.939593     0.055694    Uiso  ? C
   C51        1.0     0.456278     0.393510     0.055652    Uiso  ? C
   C52        1.0     0.754665     0.554347     0.055607    Uiso  ? C
   N1         1.0     0.545081     0.776742     0.055627    Uiso  ? N
   N2         1.0     0.758987     0.769998     0.055617    Uiso  ? N
   N3         1.0     0.454792     0.614193     0.055666    Uiso  ? N
   N4         1.0     0.663918     0.386379     0.055589    Uiso  ? N
   Fe1        1.0     0.641666     0.668104     0.055578    Uiso  ? Fe
   Ni1        1.0     0.567679     0.492284     0.055606    Uiso  ? Ni
