
#======================================================================
# CRYSTAL DATA
#----------------------------------------------------------------------
data_VESTA_phase_1

_chemical_name_common                  'CONTCAR                               '
_cell_length_a                         12.331300
_cell_length_b                         12.829200
_cell_length_c                         19.994400
_cell_angle_alpha                      89.996696
_cell_angle_beta                       89.998299
_cell_angle_gamma                      89.999496
_cell_volume                           3163.128245
_space_group_name_H-M_alt              'P 1'
_space_group_IT_number                 1

loop_
_space_group_symop_operation_xyz
   'x, y, z'

loop_
   _atom_site_label
   _atom_site_occupancy
   _atom_site_fract_x
   _atom_site_fract_y
   _atom_site_fract_z
   _atom_site_adp_type
   _atom_site_U_iso_or_equiv
   _atom_site_type_symbol
   C1         1.0     0.055374     0.055103     0.051583    Uiso  ? C
   C2         1.0     0.155952     0.110521     0.051748    Uiso  ? C
   C3         1.0     0.156256     0.221386     0.050158    Uiso  ? C
   C4         1.0     0.056068     0.276221     0.048684    Uiso  ? C
   C5         1.0     0.256321     0.056032     0.054214    Uiso  ? C
   C6         1.0     0.356790     0.111702     0.057384    Uiso  ? C
   C7         1.0     0.356682     0.223638     0.056270    Uiso  ? C
   C8         1.0     0.256066     0.277375     0.051412    Uiso  ? C
   C9         1.0     0.456500     0.055626     0.061379    Uiso  ? C
   C10        1.0     0.555656     0.113452     0.064070    Uiso  ? C
   C11        1.0     0.556247     0.227091     0.065137    Uiso  ? C
   C12        1.0     0.455231     0.283259     0.060584    Uiso  ? C
   C13        1.0     0.654177     0.052909     0.063474    Uiso  ? C
   C14        1.0     0.754173     0.110454     0.060067    Uiso  ? C
   C15        1.0     0.755145     0.223446     0.060391    Uiso  ? C
   C16        1.0     0.657254     0.284678     0.066681    Uiso  ? C
   C17        1.0     0.854091     0.053902     0.056100    Uiso  ? C
   C18        1.0     0.954623     0.109860     0.052948    Uiso  ? C
   C19        1.0     0.955368     0.221297     0.051612    Uiso  ? C
   C20        1.0     0.855809     0.277831     0.054537    Uiso  ? C
   C21        1.0     0.057670     0.386971     0.046284    Uiso  ? C
   C22        1.0     0.156564     0.443681     0.045984    Uiso  ? C
   C23        1.0     0.156856     0.554509     0.045389    Uiso  ? C
   C24        1.0     0.058427     0.610686     0.044703    Uiso  ? C
   C25        1.0     0.256104     0.388702     0.049345    Uiso  ? C
   C26        1.0     0.355155     0.444075     0.053495    Uiso  ? C
   C27        1.0     0.354887     0.557099     0.054593    Uiso  ? C
   C28        1.0     0.255582     0.610753     0.049169    Uiso  ? C
   C29        1.0     0.762364     0.449487     0.059962    Uiso  ? C
   C30        1.0     0.858811     0.389406     0.052167    Uiso  ? C
   C31        1.0     0.958967     0.442809     0.046936    Uiso  ? C
   C32        1.0     0.960428     0.553501     0.046010    Uiso  ? C
   C33        1.0     0.862292     0.608319     0.050445    Uiso  ? C
   C34        1.0     0.057366     0.721825     0.046353    Uiso  ? C
   C35        1.0     0.155770     0.778043     0.048564    Uiso  ? C
   C36        1.0     0.155602     0.889200     0.050623    Uiso  ? C
   C37        1.0     0.055254     0.944214     0.050777    Uiso  ? C
   C38        1.0     0.254537     0.721951     0.050719    Uiso  ? C
   C39        1.0     0.352947     0.777377     0.056236    Uiso  ? C
   C40        1.0     0.354775     0.888681     0.057389    Uiso  ? C
   C41        1.0     0.255563     0.944701     0.053845    Uiso  ? C
   C42        1.0     0.450119     0.719446     0.062891    Uiso  ? C
   C43        1.0     0.552443     0.882250     0.065778    Uiso  ? C
   C44        1.0     0.455415     0.942898     0.061930    Uiso  ? C
   C45        1.0     0.754459     0.882167     0.059245    Uiso  ? C
   C46        1.0     0.653554     0.938982     0.063824    Uiso  ? C
   C47        1.0     0.859896     0.720210     0.050885    Uiso  ? C
   C48        1.0     0.957774     0.777020     0.048638    Uiso  ? C
   C49        1.0     0.955359     0.888050     0.051204    Uiso  ? C
   C50        1.0     0.853876     0.941553     0.055414    Uiso  ? C
   C51        1.0     0.662976     0.396460     0.071676    Uiso  ? C
   C52        1.0     0.758873     0.770316     0.057253    Uiso  ? C
   N1         1.0     0.451806     0.391327     0.059616    Uiso  ? N
   N2         1.0     0.450646     0.611373     0.063533    Uiso  ? N
   N3         1.0     0.766403     0.558250     0.057807    Uiso  ? N
   N4         1.0     0.547110     0.772453     0.068815    Uiso  ? N
   Fe1        1.0     0.651895     0.663590     0.071426    Uiso  ? Fe
   Ni1        1.0     0.555145     0.494705     0.080036    Uiso  ? Ni
   H1         1.0     0.620102     0.563878     0.128690    Uiso  ? H
