
#======================================================================
# CRYSTAL DATA
#----------------------------------------------------------------------
data_VESTA_phase_1

_chemical_name_common                  'CONTCAR                               '
_cell_length_a                         12.331300
_cell_length_b                         12.829200
_cell_length_c                         19.994400
_cell_angle_alpha                      89.996696
_cell_angle_beta                       89.998299
_cell_angle_gamma                      89.999496
_cell_volume                           3163.128245
_space_group_name_H-M_alt              'P 1'
_space_group_IT_number                 1

loop_
_space_group_symop_operation_xyz
   'x, y, z'

loop_
   _atom_site_label
   _atom_site_occupancy
   _atom_site_fract_x
   _atom_site_fract_y
   _atom_site_fract_z
   _atom_site_adp_type
   _atom_site_U_iso_or_equiv
   _atom_site_type_symbol
   C1         1.0     0.055194     0.055576     0.049375    Uiso  ? C
   C2         1.0     0.155741     0.111238     0.049980    Uiso  ? C
   C3         1.0     0.156106     0.222146     0.048782    Uiso  ? C
   C4         1.0     0.055736     0.277009     0.047382    Uiso  ? C
   C5         1.0     0.256072     0.056651     0.052564    Uiso  ? C
   C6         1.0     0.356481     0.112345     0.056122    Uiso  ? C
   C7         1.0     0.356446     0.224256     0.055261    Uiso  ? C
   C8         1.0     0.255916     0.278139     0.050331    Uiso  ? C
   C9         1.0     0.456151     0.056038     0.060382    Uiso  ? C
   C10        1.0     0.555371     0.113549     0.063061    Uiso  ? C
   C11        1.0     0.555978     0.226780     0.064351    Uiso  ? C
   C12        1.0     0.455377     0.283425     0.060118    Uiso  ? C
   C13        1.0     0.653932     0.053496     0.062100    Uiso  ? C
   C14        1.0     0.754043     0.110695     0.058304    Uiso  ? C
   C15        1.0     0.755111     0.223218     0.058887    Uiso  ? C
   C16        1.0     0.657053     0.283693     0.065513    Uiso  ? C
   C17        1.0     0.854144     0.054474     0.053816    Uiso  ? C
   C18        1.0     0.954507     0.110474     0.050905    Uiso  ? C
   C19        1.0     0.955214     0.221972     0.050153    Uiso  ? C
   C20        1.0     0.855456     0.278255     0.053291    Uiso  ? C
   C21        1.0     0.057032     0.387730     0.044974    Uiso  ? C
   C22        1.0     0.156355     0.444415     0.044644    Uiso  ? C
   C23        1.0     0.156439     0.555211     0.043680    Uiso  ? C
   C24        1.0     0.057578     0.611225     0.042438    Uiso  ? C
   C25        1.0     0.256114     0.389596     0.048363    Uiso  ? C
   C26        1.0     0.355378     0.445093     0.053102    Uiso  ? C
   C27        1.0     0.354994     0.557942     0.054354    Uiso  ? C
   C28        1.0     0.255369     0.611308     0.047735    Uiso  ? C
   C29        1.0     0.760324     0.449832     0.058106    Uiso  ? C
   C30        1.0     0.857772     0.389796     0.051023    Uiso  ? C
   C31        1.0     0.957951     0.443365     0.045438    Uiso  ? C
   C32        1.0     0.959081     0.554264     0.043690    Uiso  ? C
   C33        1.0     0.860335     0.608617     0.046766    Uiso  ? C
   C34        1.0     0.056911     0.722242     0.043561    Uiso  ? C
   C35        1.0     0.155584     0.778511     0.046203    Uiso  ? C
   C36        1.0     0.155459     0.889647     0.048260    Uiso  ? C
   C37        1.0     0.055097     0.944707     0.048147    Uiso  ? C
   C38        1.0     0.254501     0.722567     0.049072    Uiso  ? C
   C39        1.0     0.353019     0.778008     0.055177    Uiso  ? C
   C40        1.0     0.354629     0.889218     0.056145    Uiso  ? C
   C41        1.0     0.255408     0.945235     0.052018    Uiso  ? C
   C42        1.0     0.450329     0.720016     0.063159    Uiso  ? C
   C43        1.0     0.552388     0.883248     0.065300    Uiso  ? C
   C44        1.0     0.455099     0.943653     0.061156    Uiso  ? C
   C45        1.0     0.754253     0.883412     0.056768    Uiso  ? C
   C46        1.0     0.653169     0.939833     0.062590    Uiso  ? C
   C47        1.0     0.858817     0.720775     0.046725    Uiso  ? C
   C48        1.0     0.957244     0.777370     0.045171    Uiso  ? C
   C49        1.0     0.955063     0.888460     0.048089    Uiso  ? C
   C50        1.0     0.853892     0.942373     0.052553    Uiso  ? C
   C51        1.0     0.662452     0.394648     0.070538    Uiso  ? C
   C52        1.0     0.758612     0.772477     0.053955    Uiso  ? C
   N1         1.0     0.452223     0.391513     0.059992    Uiso  ? N
   N2         1.0     0.450243     0.612367     0.064937    Uiso  ? N
   N3         1.0     0.763812     0.558432     0.053763    Uiso  ? N
   N4         1.0     0.547424     0.773542     0.069500    Uiso  ? N
   Fe1        1.0     0.656527     0.668012     0.077494    Uiso  ? Fe
   Ni1        1.0     0.553471     0.489284     0.085976    Uiso  ? Ni
   O1         1.0     0.623751     0.577691     0.152135    Uiso  ? O
   H1         1.0     0.564230     0.603577     0.179685    Uiso  ? H
