
#======================================================================
# CRYSTAL DATA
#----------------------------------------------------------------------
data_VESTA_phase_1

_chemical_name_common                  'CONTCAR                               '
_cell_length_a                         12.331300
_cell_length_b                         12.829200
_cell_length_c                         19.994400
_cell_angle_alpha                      89.996696
_cell_angle_beta                       89.998299
_cell_angle_gamma                      89.999496
_cell_volume                           3163.128245
_space_group_name_H-M_alt              'P 1'
_space_group_IT_number                 1

loop_
_space_group_symop_operation_xyz
   'x, y, z'

loop_
   _atom_site_label
   _atom_site_occupancy
   _atom_site_fract_x
   _atom_site_fract_y
   _atom_site_fract_z
   _atom_site_adp_type
   _atom_site_U_iso_or_equiv
   _atom_site_type_symbol
   C1         1.0     0.055436     0.054817     0.051493    Uiso  ? C
   C2         1.0     0.155997     0.110404     0.051914    Uiso  ? C
   C3         1.0     0.156376     0.221272     0.050533    Uiso  ? C
   C4         1.0     0.056163     0.276190     0.048778    Uiso  ? C
   C5         1.0     0.256296     0.055812     0.054229    Uiso  ? C
   C6         1.0     0.356769     0.111466     0.058033    Uiso  ? C
   C7         1.0     0.356679     0.223378     0.057371    Uiso  ? C
   C8         1.0     0.256163     0.277314     0.052032    Uiso  ? C
   C9         1.0     0.456480     0.055139     0.062148    Uiso  ? C
   C10        1.0     0.555631     0.112842     0.065290    Uiso  ? C
   C11        1.0     0.556231     0.226311     0.066620    Uiso  ? C
   C12        1.0     0.455375     0.282673     0.062523    Uiso  ? C
   C13        1.0     0.654251     0.052562     0.064565    Uiso  ? C
   C14        1.0     0.754304     0.110053     0.060814    Uiso  ? C
   C15        1.0     0.755365     0.222739     0.060830    Uiso  ? C
   C16        1.0     0.657281     0.283606     0.067179    Uiso  ? C
   C17        1.0     0.854320     0.053725     0.056390    Uiso  ? C
   C18        1.0     0.954738     0.109736     0.053167    Uiso  ? C
   C19        1.0     0.955491     0.221150     0.051974    Uiso  ? C
   C20        1.0     0.855829     0.277499     0.054940    Uiso  ? C
   C21        1.0     0.057698     0.386816     0.045531    Uiso  ? C
   C22        1.0     0.156829     0.443500     0.044755    Uiso  ? C
   C23        1.0     0.156826     0.554359     0.043370    Uiso  ? C
   C24        1.0     0.058109     0.610479     0.042447    Uiso  ? C
   C25        1.0     0.256472     0.388642     0.049161    Uiso  ? C
   C26        1.0     0.355748     0.444120     0.053657    Uiso  ? C
   C27        1.0     0.355385     0.557289     0.052770    Uiso  ? C
   C28        1.0     0.255449     0.610639     0.046762    Uiso  ? C
   C29        1.0     0.761393     0.449317     0.058413    Uiso  ? C
   C30        1.0     0.858512     0.389023     0.051927    Uiso  ? C
   C31        1.0     0.958594     0.442572     0.045843    Uiso  ? C
   C32        1.0     0.959808     0.553331     0.043849    Uiso  ? C
   C33        1.0     0.861153     0.607805     0.047083    Uiso  ? C
   C34        1.0     0.057154     0.721488     0.043804    Uiso  ? C
   C35        1.0     0.155710     0.777823     0.046262    Uiso  ? C
   C36        1.0     0.155653     0.888931     0.049180    Uiso  ? C
   C37        1.0     0.055273     0.943985     0.049935    Uiso  ? C
   C38        1.0     0.254650     0.721811     0.048448    Uiso  ? C
   C39        1.0     0.353115     0.777405     0.054762    Uiso  ? C
   C40        1.0     0.354798     0.888423     0.056549    Uiso  ? C
   C41        1.0     0.255468     0.944497     0.053011    Uiso  ? C
   C42        1.0     0.450475     0.719187     0.061405    Uiso  ? C
   C43        1.0     0.552518     0.881834     0.066125    Uiso  ? C
   C44        1.0     0.455361     0.942599     0.061962    Uiso  ? C
   C45        1.0     0.754746     0.882321     0.060307    Uiso  ? C
   C46        1.0     0.653666     0.938797     0.065113    Uiso  ? C
   C47        1.0     0.859130     0.719995     0.048864    Uiso  ? C
   C48        1.0     0.957300     0.776635     0.046580    Uiso  ? C
   C49        1.0     0.955289     0.887743     0.050240    Uiso  ? C
   C50        1.0     0.854162     0.941592     0.055315    Uiso  ? C
   C51        1.0     0.662994     0.394900     0.071339    Uiso  ? C
   C52        1.0     0.758900     0.771080     0.057827    Uiso  ? C
   N1         1.0     0.452121     0.390844     0.062397    Uiso  ? N
   N2         1.0     0.450073     0.611814     0.061297    Uiso  ? N
   N3         1.0     0.765263     0.557350     0.053233    Uiso  ? N
   N4         1.0     0.547761     0.772257     0.068224    Uiso  ? N
   Fe1        1.0     0.654299     0.664527     0.077038    Uiso  ? Fe
   Ni1        1.0     0.554014     0.489717     0.087681    Uiso  ? Ni
   O1         1.0     0.620506     0.582564     0.142790    Uiso  ? O
