
#======================================================================
# CRYSTAL DATA
#----------------------------------------------------------------------
data_VESTA_phase_1

_chemical_name_common                  'CONTCAR                               '
_cell_length_a                         12.331300
_cell_length_b                         12.829200
_cell_length_c                         19.994400
_cell_angle_alpha                      89.996696
_cell_angle_beta                       89.998299
_cell_angle_gamma                      89.999496
_cell_volume                           3163.128245
_space_group_name_H-M_alt              'P 1'
_space_group_IT_number                 1

loop_
_space_group_symop_operation_xyz
   'x, y, z'

loop_
   _atom_site_label
   _atom_site_occupancy
   _atom_site_fract_x
   _atom_site_fract_y
   _atom_site_fract_z
   _atom_site_adp_type
   _atom_site_U_iso_or_equiv
   _atom_site_type_symbol
   C1         1.0     0.054472     0.054167     0.051431    Uiso  ? C
   C2         1.0     0.155029     0.109596     0.051064    Uiso  ? C
   C3         1.0     0.155351     0.220430     0.049692    Uiso  ? C
   C4         1.0     0.055157     0.275340     0.049186    Uiso  ? C
   C5         1.0     0.255464     0.055085     0.052706    Uiso  ? C
   C6         1.0     0.355943     0.110706     0.055683    Uiso  ? C
   C7         1.0     0.355801     0.222672     0.054629    Uiso  ? C
   C8         1.0     0.255157     0.276404     0.050154    Uiso  ? C
   C9         1.0     0.455749     0.054605     0.059529    Uiso  ? C
   C10        1.0     0.554835     0.112557     0.063024    Uiso  ? C
   C11        1.0     0.555367     0.226285     0.064202    Uiso  ? C
   C12        1.0     0.454364     0.282354     0.058668    Uiso  ? C
   C13        1.0     0.653390     0.052043     0.063381    Uiso  ? C
   C14        1.0     0.753394     0.109624     0.060907    Uiso  ? C
   C15        1.0     0.754345     0.222645     0.061780    Uiso  ? C
   C16        1.0     0.656329     0.283923     0.067287    Uiso  ? C
   C17        1.0     0.853252     0.052965     0.056829    Uiso  ? C
   C18        1.0     0.953736     0.108942     0.053549    Uiso  ? C
   C19        1.0     0.954499     0.220447     0.052709    Uiso  ? C
   C20        1.0     0.855003     0.277120     0.056343    Uiso  ? C
   C21        1.0     0.056800     0.386117     0.046852    Uiso  ? C
   C22        1.0     0.155683     0.442776     0.045258    Uiso  ? C
   C23        1.0     0.155992     0.553619     0.044171    Uiso  ? C
   C24        1.0     0.057480     0.609800     0.044562    Uiso  ? C
   C25        1.0     0.255201     0.387739     0.047730    Uiso  ? C
   C26        1.0     0.354360     0.443043     0.050781    Uiso  ? C
   C27        1.0     0.354287     0.556188     0.051208    Uiso  ? C
   C28        1.0     0.254726     0.609872     0.046601    Uiso  ? C
   C29        1.0     0.761553     0.449116     0.062386    Uiso  ? C
   C30        1.0     0.858056     0.388799     0.054470    Uiso  ? C
   C31        1.0     0.958146     0.442014     0.048646    Uiso  ? C
   C32        1.0     0.959541     0.552671     0.047581    Uiso  ? C
   C33        1.0     0.861539     0.607633     0.052940    Uiso  ? C
   C34        1.0     0.056460     0.720870     0.045691    Uiso  ? C
   C35        1.0     0.154897     0.777134     0.046869    Uiso  ? C
   C36        1.0     0.154734     0.888271     0.049148    Uiso  ? C
   C37        1.0     0.054351     0.943262     0.050273    Uiso  ? C
   C38        1.0     0.253771     0.721053     0.048061    Uiso  ? C
   C39        1.0     0.352401     0.776422     0.052968    Uiso  ? C
   C40        1.0     0.354062     0.887725     0.054682    Uiso  ? C
   C41        1.0     0.254709     0.943752     0.051848    Uiso  ? C
   C42        1.0     0.449652     0.718412     0.058941    Uiso  ? C
   C43        1.0     0.551729     0.881151     0.063724    Uiso  ? C
   C44        1.0     0.454668     0.941870     0.059512    Uiso  ? C
   C45        1.0     0.753658     0.881087     0.060420    Uiso  ? C
   C46        1.0     0.652838     0.937965     0.063584    Uiso  ? C
   C47        1.0     0.859281     0.719226     0.052564    Uiso  ? C
   C48        1.0     0.956793     0.776039     0.048829    Uiso  ? C
   C49        1.0     0.954528     0.887140     0.051369    Uiso  ? C
   C50        1.0     0.853018     0.940540     0.056093    Uiso  ? C
   C51        1.0     0.661956     0.395808     0.072507    Uiso  ? C
   C52        1.0     0.757704     0.768675     0.059652    Uiso  ? C
   N1         1.0     0.450994     0.390380     0.056757    Uiso  ? N
   N2         1.0     0.450158     0.610427     0.059069    Uiso  ? N
   N3         1.0     0.765457     0.558082     0.060824    Uiso  ? N
   N4         1.0     0.546909     0.771249     0.065525    Uiso  ? N
   Fe1        1.0     0.650926     0.663824     0.073484    Uiso  ? Fe
   Ni1        1.0     0.553961     0.494498     0.076908    Uiso  ? Ni
   H1         1.0     0.683084     0.687878     0.142614    Uiso  ? H
   H2         1.0     0.615778     0.565394     0.127087    Uiso  ? H
