
#======================================================================
# CRYSTAL DATA
#----------------------------------------------------------------------
data_VESTA_phase_1

_chemical_name_common                  'CONTCAR                               '
_cell_length_a                         12.331300
_cell_length_b                         12.829200
_cell_length_c                         19.994400
_cell_angle_alpha                      89.996696
_cell_angle_beta                       89.998299
_cell_angle_gamma                      89.999496
_cell_volume                           3163.128245
_space_group_name_H-M_alt              'P 1'
_space_group_IT_number                 1

loop_
_space_group_symop_operation_xyz
   'x, y, z'

loop_
   _atom_site_label
   _atom_site_occupancy
   _atom_site_fract_x
   _atom_site_fract_y
   _atom_site_fract_z
   _atom_site_adp_type
   _atom_site_U_iso_or_equiv
   _atom_site_type_symbol
   C1         1.0     0.054614     0.054943     0.045417    Uiso  ? C
   C2         1.0     0.155014     0.110881     0.045334    Uiso  ? C
   C3         1.0     0.155693     0.221921     0.045338    Uiso  ? C
   C4         1.0     0.055694     0.276649     0.045245    Uiso  ? C
   C5         1.0     0.255076     0.055996     0.046351    Uiso  ? C
   C6         1.0     0.355659     0.111201     0.049167    Uiso  ? C
   C7         1.0     0.355700     0.222804     0.049940    Uiso  ? C
   C8         1.0     0.256008     0.277997     0.046930    Uiso  ? C
   C9         1.0     0.455387     0.055430     0.052105    Uiso  ? C
   C10        1.0     0.555076     0.112206     0.055749    Uiso  ? C
   C11        1.0     0.555781     0.224411     0.059275    Uiso  ? C
   C12        1.0     0.454380     0.280450     0.056369    Uiso  ? C
   C13        1.0     0.653844     0.052551     0.055316    Uiso  ? C
   C14        1.0     0.754065     0.109246     0.052951    Uiso  ? C
   C15        1.0     0.755294     0.221514     0.054183    Uiso  ? C
   C16        1.0     0.657320     0.280536     0.061471    Uiso  ? C
   C17        1.0     0.853838     0.053193     0.049602    Uiso  ? C
   C18        1.0     0.954170     0.109745     0.047061    Uiso  ? C
   C19        1.0     0.954922     0.221372     0.047154    Uiso  ? C
   C20        1.0     0.855228     0.277451     0.050633    Uiso  ? C
   C21        1.0     0.057350     0.387579     0.044800    Uiso  ? C
   C22        1.0     0.157243     0.443956     0.044365    Uiso  ? C
   C23        1.0     0.157648     0.554730     0.044316    Uiso  ? C
   C24        1.0     0.057826     0.610094     0.044659    Uiso  ? C
   C25        1.0     0.257447     0.389526     0.046429    Uiso  ? C
   C26        1.0     0.358442     0.444442     0.050939    Uiso  ? C
   C27        1.0     0.360504     0.559165     0.050017    Uiso  ? C
   C28        1.0     0.257677     0.610735     0.045802    Uiso  ? C
   C29        1.0     0.759516     0.448928     0.059814    Uiso  ? C
   C30        1.0     0.857070     0.389333     0.051204    Uiso  ? C
   C31        1.0     0.957943     0.442787     0.047114    Uiso  ? C
   C32        1.0     0.958469     0.553415     0.047449    Uiso  ? C
   C33        1.0     0.858809     0.607316     0.052260    Uiso  ? C
   C34        1.0     0.056456     0.721132     0.044392    Uiso  ? C
   C35        1.0     0.154998     0.777544     0.044029    Uiso  ? C
   C36        1.0     0.154545     0.888724     0.044379    Uiso  ? C
   C37        1.0     0.054292     0.943722     0.045041    Uiso  ? C
   C38        1.0     0.254482     0.721976     0.045349    Uiso  ? C
   C39        1.0     0.352308     0.778840     0.047704    Uiso  ? C
   C40        1.0     0.353583     0.889626     0.047848    Uiso  ? C
   C41        1.0     0.254166     0.944936     0.045762    Uiso  ? C
   C42        1.0     0.450289     0.722183     0.051824    Uiso  ? C
   C43        1.0     0.551581     0.883434     0.054552    Uiso  ? C
   C44        1.0     0.454148     0.943691     0.051316    Uiso  ? C
   C45        1.0     0.753457     0.882709     0.054361    Uiso  ? C
   C46        1.0     0.653095     0.939565     0.055713    Uiso  ? C
   C47        1.0     0.858175     0.719095     0.050803    Uiso  ? C
   C48        1.0     0.956542     0.775875     0.046344    Uiso  ? C
   C49        1.0     0.954582     0.887157     0.046686    Uiso  ? C
   C50        1.0     0.853417     0.941110     0.049805    Uiso  ? C
   C51        1.0     0.663284     0.390476     0.070422    Uiso  ? C
   C52        1.0     0.758104     0.771114     0.057084    Uiso  ? C
   N1         1.0     0.451898     0.387977     0.060231    Uiso  ? N
   N2         1.0     0.455170     0.615934     0.053893    Uiso  ? N
   N3         1.0     0.761069     0.558006     0.059885    Uiso  ? N
   N4         1.0     0.547215     0.775803     0.055078    Uiso  ? N
   Fe1        1.0     0.652530     0.674019     0.083282    Uiso  ? Fe
   Ni1        1.0     0.552991     0.458778     0.109733    Uiso  ? Ni
   O1         1.0     0.591036     0.493493     0.191094    Uiso  ? O
   O2         1.0     0.655142     0.691824     0.174840    Uiso  ? O
   H1         1.0     0.722263     0.716669     0.194850    Uiso  ? H
   H2         1.0     0.612749     0.568054     0.194452    Uiso  ? H
