
#======================================================================
# CRYSTAL DATA
#----------------------------------------------------------------------
data_VESTA_phase_1

_chemical_name_common                  'CONTCAR                               '
_cell_length_a                         12.331300
_cell_length_b                         12.829200
_cell_length_c                         19.994400
_cell_angle_alpha                      89.996696
_cell_angle_beta                       89.998299
_cell_angle_gamma                      89.999496
_cell_volume                           3163.128245
_space_group_name_H-M_alt              'P 1'
_space_group_IT_number                 1

loop_
_space_group_symop_operation_xyz
   'x, y, z'

loop_
   _atom_site_label
   _atom_site_occupancy
   _atom_site_fract_x
   _atom_site_fract_y
   _atom_site_fract_z
   _atom_site_adp_type
   _atom_site_U_iso_or_equiv
   _atom_site_type_symbol
   C1         1.0     0.055413     0.054816     0.049122    Uiso  ? C
   C2         1.0     0.155923     0.110561     0.049285    Uiso  ? C
   C3         1.0     0.156502     0.221550     0.048499    Uiso  ? C
   C4         1.0     0.056377     0.276265     0.047620    Uiso  ? C
   C5         1.0     0.256126     0.055979     0.051031    Uiso  ? C
   C6         1.0     0.356623     0.111603     0.053955    Uiso  ? C
   C7         1.0     0.356704     0.223460     0.053736    Uiso  ? C
   C8         1.0     0.256487     0.277662     0.049892    Uiso  ? C
   C9         1.0     0.456291     0.055550     0.057145    Uiso  ? C
   C10        1.0     0.555743     0.112624     0.059946    Uiso  ? C
   C11        1.0     0.556365     0.225650     0.061721    Uiso  ? C
   C12        1.0     0.455781     0.282112     0.058328    Uiso  ? C
   C13        1.0     0.654314     0.052741     0.059564    Uiso  ? C
   C14        1.0     0.754588     0.109643     0.056696    Uiso  ? C
   C15        1.0     0.755864     0.222052     0.057178    Uiso  ? C
   C16        1.0     0.657657     0.282154     0.063268    Uiso  ? C
   C17        1.0     0.854413     0.053342     0.053179    Uiso  ? C
   C18        1.0     0.954844     0.109597     0.050414    Uiso  ? C
   C19        1.0     0.955738     0.221080     0.049817    Uiso  ? C
   C20        1.0     0.856088     0.277277     0.052760    Uiso  ? C
   C21        1.0     0.057898     0.387148     0.046202    Uiso  ? C
   C22        1.0     0.157326     0.443741     0.045935    Uiso  ? C
   C23        1.0     0.157510     0.554631     0.045614    Uiso  ? C
   C24        1.0     0.058331     0.610375     0.045351    Uiso  ? C
   C25        1.0     0.257144     0.389168     0.048494    Uiso  ? C
   C26        1.0     0.357161     0.444459     0.052125    Uiso  ? C
   C27        1.0     0.357887     0.558122     0.052385    Uiso  ? C
   C28        1.0     0.256767     0.610762     0.048012    Uiso  ? C
   C29        1.0     0.761249     0.448822     0.058719    Uiso  ? C
   C30        1.0     0.858542     0.388995     0.051740    Uiso  ? C
   C31        1.0     0.958823     0.442621     0.047373    Uiso  ? C
   C32        1.0     0.959509     0.553439     0.046932    Uiso  ? C
   C33        1.0     0.860580     0.607582     0.050649    Uiso  ? C
   C34        1.0     0.057176     0.721336     0.045896    Uiso  ? C
   C35        1.0     0.155677     0.777713     0.047023    Uiso  ? C
   C36        1.0     0.155430     0.888884     0.048213    Uiso  ? C
   C37        1.0     0.055049     0.943786     0.048550    Uiso  ? C
   C38        1.0     0.254706     0.721966     0.048793    Uiso  ? C
   C39        1.0     0.352927     0.778097     0.052600    Uiso  ? C
   C40        1.0     0.354501     0.889082     0.053084    Uiso  ? C
   C41        1.0     0.255164     0.944749     0.050463    Uiso  ? C
   C42        1.0     0.450554     0.720915     0.057791    Uiso  ? C
   C43        1.0     0.552224     0.883131     0.060073    Uiso  ? C
   C44        1.0     0.455028     0.943359     0.056877    Uiso  ? C
   C45        1.0     0.754179     0.882348     0.057652    Uiso  ? C
   C46        1.0     0.653662     0.939276     0.060107    Uiso  ? C
   C47        1.0     0.859339     0.719361     0.050758    Uiso  ? C
   C48        1.0     0.957263     0.776156     0.047775    Uiso  ? C
   C49        1.0     0.955193     0.887425     0.049503    Uiso  ? C
   C50        1.0     0.854015     0.941157     0.053195    Uiso  ? C
   C51        1.0     0.663817     0.392351     0.069239    Uiso  ? C
   C52        1.0     0.758609     0.770470     0.057992    Uiso  ? C
   N1         1.0     0.453054     0.390358     0.058839    Uiso  ? N
   N2         1.0     0.453323     0.613483     0.059102    Uiso  ? N
   N3         1.0     0.763402     0.557645     0.056632    Uiso  ? N
   N4         1.0     0.547444     0.774564     0.061377    Uiso  ? N
   Fe1        1.0     0.652022     0.669138     0.074982    Uiso  ? Fe
   Ni1        1.0     0.555769     0.483406     0.090481    Uiso  ? Ni
   O1         1.0     0.607364     0.541639     0.167521    Uiso  ? O
   O2         1.0     0.638880     0.646545     0.164135    Uiso  ? O
