
#======================================================================
# CRYSTAL DATA
#----------------------------------------------------------------------
data_VESTA_phase_1

_chemical_name_common                  '1h\(2)                                '
_cell_length_a                         12.331300
_cell_length_b                         12.829200
_cell_length_c                         19.994400
_cell_angle_alpha                      89.996696
_cell_angle_beta                       89.998299
_cell_angle_gamma                      89.999496
_cell_volume                           3163.128245
_space_group_name_H-M_alt              'P 1'
_space_group_IT_number                 1

loop_
_space_group_symop_operation_xyz
   'x, y, z'

loop_
   _atom_site_label
   _atom_site_occupancy
   _atom_site_fract_x
   _atom_site_fract_y
   _atom_site_fract_z
   _atom_site_adp_type
   _atom_site_U_iso_or_equiv
   _atom_site_type_symbol
   C1         1.0     0.055614     0.054499     0.055071    Uiso  ? C
   C2         1.0     0.155998     0.110594     0.055336    Uiso  ? C
   C3         1.0     0.156907     0.221588     0.055164    Uiso  ? C
   C4         1.0     0.056702     0.276054     0.054632    Uiso  ? C
   C5         1.0     0.256228     0.056349     0.055917    Uiso  ? C
   C6         1.0     0.356796     0.112256     0.056868    Uiso  ? C
   C7         1.0     0.357365     0.224166     0.056947    Uiso  ? C
   C8         1.0     0.256702     0.277981     0.055796    Uiso  ? C
   C9         1.0     0.456280     0.055944     0.057594    Uiso  ? C
   C10        1.0     0.555755     0.112780     0.058001    Uiso  ? C
   C11        1.0     0.556638     0.225882     0.058133    Uiso  ? C
   C12        1.0     0.456631     0.283292     0.057901    Uiso  ? C
   C13        1.0     0.654349     0.052584     0.057691    Uiso  ? C
   C14        1.0     0.754719     0.109325     0.057009    Uiso  ? C
   C15        1.0     0.756082     0.221698     0.056942    Uiso  ? C
   C16        1.0     0.657714     0.282029     0.057758    Uiso  ? C
   C17        1.0     0.854398     0.052560     0.056101    Uiso  ? C
   C18        1.0     0.954943     0.108881     0.055412    Uiso  ? C
   C19        1.0     0.956195     0.220431     0.055177    Uiso  ? C
   C20        1.0     0.856684     0.276738     0.055776    Uiso  ? C
   C21        1.0     0.058630     0.386847     0.053985    Uiso  ? C
   C22        1.0     0.157566     0.443885     0.054044    Uiso  ? C
   C23        1.0     0.157527     0.554512     0.053679    Uiso  ? C
   C24        1.0     0.058273     0.610191     0.053209    Uiso  ? C
   C25        1.0     0.257443     0.389395     0.055333    Uiso  ? C
   C26        1.0     0.357049     0.445083     0.056618    Uiso  ? C
   C27        1.0     0.357490     0.557609     0.056405    Uiso  ? C
   C28        1.0     0.256801     0.610745     0.054781    Uiso  ? C
   C29        1.0     0.762632     0.447784     0.056296    Uiso  ? C
   C30        1.0     0.860017     0.388268     0.055264    Uiso  ? C
   C31        1.0     0.959837     0.442377     0.054062    Uiso  ? C
   C32        1.0     0.959850     0.553028     0.053678    Uiso  ? C
   C33        1.0     0.860258     0.607099     0.054712    Uiso  ? C
   C34        1.0     0.056950     0.721051     0.053440    Uiso  ? C
   C35        1.0     0.155355     0.777576     0.054021    Uiso  ? C
   C36        1.0     0.155316     0.888846     0.054620    Uiso  ? C
   C37        1.0     0.055014     0.943507     0.054696    Uiso  ? C
   C38        1.0     0.254330     0.721933     0.054833    Uiso  ? C
   C39        1.0     0.352428     0.778236     0.056228    Uiso  ? C
   C40        1.0     0.354311     0.889346     0.056454    Uiso  ? C
   C41        1.0     0.255092     0.944996     0.055589    Uiso  ? C
   C42        1.0     0.450246     0.721548     0.057549    Uiso  ? C
   C43        1.0     0.552029     0.884360     0.058018    Uiso  ? C
   C44        1.0     0.454805     0.943874     0.057518    Uiso  ? C
   C45        1.0     0.753422     0.880846     0.056730    Uiso  ? C
   C46        1.0     0.653314     0.939207     0.057653    Uiso  ? C
   C47        1.0     0.858864     0.718674     0.054923    Uiso  ? C
   C48        1.0     0.957077     0.775702     0.054148    Uiso  ? C
   C49        1.0     0.955066     0.886858     0.054775    Uiso  ? C
   C50        1.0     0.853507     0.940134     0.055861    Uiso  ? C
   C51        1.0     0.663350     0.392500     0.057704    Uiso  ? C
   C52        1.0     0.757565     0.768650     0.056362    Uiso  ? C
   N1         1.0     0.454019     0.391535     0.058199    Uiso  ? N
   N2         1.0     0.454836     0.613587     0.057852    Uiso  ? N
   N3         1.0     0.763045     0.556543     0.056019    Uiso  ? N
   N4         1.0     0.546698     0.775494     0.058302    Uiso  ? N
   Fe1        1.0     0.643544     0.665817     0.057462    Uiso  ? Fe
   Ni1        1.0     0.562954     0.494031     0.058853    Uiso  ? Ni
