
#======================================================================
# CRYSTAL DATA
#----------------------------------------------------------------------
data_VESTA_phase_1

_chemical_name_common                  'CONTCAR\(2)\(3)                       '
_cell_length_a                         12.331300
_cell_length_b                         12.829200
_cell_length_c                         19.994400
_cell_angle_alpha                      89.996696
_cell_angle_beta                       89.998299
_cell_angle_gamma                      89.999496
_cell_volume                           3163.128245
_space_group_name_H-M_alt              'P 1'
_space_group_IT_number                 1

loop_
_space_group_symop_operation_xyz
   'x, y, z'

loop_
   _atom_site_label
   _atom_site_occupancy
   _atom_site_fract_x
   _atom_site_fract_y
   _atom_site_fract_z
   _atom_site_adp_type
   _atom_site_U_iso_or_equiv
   _atom_site_type_symbol
   C1         1.0     0.056426     0.054454     0.052607    Uiso  ? C
   C2         1.0     0.156599     0.110252     0.052124    Uiso  ? C
   C3         1.0     0.157028     0.221149     0.051032    Uiso  ? C
   C4         1.0     0.057022     0.276256     0.049987    Uiso  ? C
   C5         1.0     0.257030     0.055806     0.053371    Uiso  ? C
   C6         1.0     0.357108     0.112473     0.055098    Uiso  ? C
   C7         1.0     0.357652     0.224155     0.054815    Uiso  ? C
   C8         1.0     0.256524     0.277350     0.051941    Uiso  ? C
   C9         1.0     0.456869     0.056683     0.057514    Uiso  ? C
   C10        1.0     0.557030     0.113654     0.059587    Uiso  ? C
   C11        1.0     0.557680     0.225702     0.060250    Uiso  ? C
   C12        1.0     0.457590     0.283037     0.057781    Uiso  ? C
   C13        1.0     0.656240     0.054759     0.059895    Uiso  ? C
   C14        1.0     0.756444     0.110438     0.057503    Uiso  ? C
   C15        1.0     0.757916     0.221741     0.056644    Uiso  ? C
   C16        1.0     0.659623     0.281205     0.060523    Uiso  ? C
   C17        1.0     0.855893     0.053866     0.055607    Uiso  ? C
   C18        1.0     0.956227     0.109271     0.053056    Uiso  ? C
   C19        1.0     0.957404     0.220197     0.051452    Uiso  ? C
   C20        1.0     0.858129     0.275935     0.052703    Uiso  ? C
   C21        1.0     0.056840     0.387432     0.049122    Uiso  ? C
   C22        1.0     0.155182     0.443819     0.049599    Uiso  ? C
   C23        1.0     0.155014     0.555389     0.049908    Uiso  ? C
   C24        1.0     0.055341     0.610561     0.050422    Uiso  ? C
   C25        1.0     0.254586     0.388156     0.051077    Uiso  ? C
   C26        1.0     0.352486     0.444482     0.053398    Uiso  ? C
   C27        1.0     0.353243     0.556404     0.053766    Uiso  ? C
   C28        1.0     0.253798     0.611885     0.051357    Uiso  ? C
   C29        1.0     0.760131     0.442201     0.055826    Uiso  ? C
   C30        1.0     0.859127     0.386718     0.051176    Uiso  ? C
   C31        1.0     0.957455     0.443057     0.049396    Uiso  ? C
   C32        1.0     0.956503     0.553772     0.050501    Uiso  ? C
   C33        1.0     0.855650     0.607768     0.053022    Uiso  ? C
   C34        1.0     0.055551     0.721852     0.051578    Uiso  ? C
   C35        1.0     0.154734     0.777885     0.051773    Uiso  ? C
   C36        1.0     0.155787     0.888945     0.052498    Uiso  ? C
   C37        1.0     0.055617     0.943734     0.053073    Uiso  ? C
   C38        1.0     0.254339     0.722493     0.052004    Uiso  ? C
   C39        1.0     0.354207     0.777098     0.054261    Uiso  ? C
   C40        1.0     0.355957     0.888581     0.054861    Uiso  ? C
   C41        1.0     0.256146     0.944494     0.053302    Uiso  ? C
   C42        1.0     0.453674     0.718833     0.058385    Uiso  ? C
   C43        1.0     0.555197     0.887248     0.061228    Uiso  ? C
   C44        1.0     0.455902     0.944932     0.057574    Uiso  ? C
   C45        1.0     0.754950     0.884794     0.060388    Uiso  ? C
   C46        1.0     0.655714     0.943495     0.061353    Uiso  ? C
   C47        1.0     0.856198     0.721016     0.055879    Uiso  ? C
   C48        1.0     0.955520     0.776927     0.053572    Uiso  ? C
   C49        1.0     0.955454     0.887888     0.054459    Uiso  ? C
   C50        1.0     0.854989     0.942163     0.056723    Uiso  ? C
   C51        1.0     0.453381     0.394240     0.056891    Uiso  ? C
   C52        1.0     0.756608     0.553203     0.056274    Uiso  ? C
   C53        1.0     0.551916     0.777716     0.064840    Uiso  ? C
   C54        1.0     0.755879     0.773309     0.061793    Uiso  ? C
   C55        1.0     0.453867     0.606443     0.058893    Uiso  ? C
   N1         1.0     0.664328     0.387323     0.062980    Uiso  ? N
   Fe1        1.0     0.646400     0.667078     0.082233    Uiso  ? Fe
   Ni1        1.0     0.563333     0.494423     0.068948    Uiso  ? Ni
   H1         1.0     0.612211     0.561853     0.130907    Uiso  ? H
