
#======================================================================
# CRYSTAL DATA
#----------------------------------------------------------------------
data_VESTA_phase_1

_chemical_name_common                  'CONTCAR\(2)\(3)                       '
_cell_length_a                         12.331300
_cell_length_b                         12.829200
_cell_length_c                         19.994400
_cell_angle_alpha                      89.996696
_cell_angle_beta                       89.998299
_cell_angle_gamma                      89.999496
_cell_volume                           3163.128245
_space_group_name_H-M_alt              'P 1'
_space_group_IT_number                 1

loop_
_space_group_symop_operation_xyz
   'x, y, z'

loop_
   _atom_site_label
   _atom_site_occupancy
   _atom_site_fract_x
   _atom_site_fract_y
   _atom_site_fract_z
   _atom_site_adp_type
   _atom_site_U_iso_or_equiv
   _atom_site_type_symbol
   C1         1.0     0.056193     0.055047     0.049339    Uiso  ? C
   C2         1.0     0.156423     0.110570     0.049057    Uiso  ? C
   C3         1.0     0.156684     0.221462     0.047607    Uiso  ? C
   C4         1.0     0.056573     0.276682     0.046604    Uiso  ? C
   C5         1.0     0.256939     0.056016     0.051109    Uiso  ? C
   C6         1.0     0.357030     0.112733     0.053840    Uiso  ? C
   C7         1.0     0.357409     0.224538     0.053020    Uiso  ? C
   C8         1.0     0.256209     0.277580     0.048663    Uiso  ? C
   C9         1.0     0.456632     0.056920     0.057835    Uiso  ? C
   C10        1.0     0.556724     0.114204     0.060482    Uiso  ? C
   C11        1.0     0.557157     0.226264     0.061303    Uiso  ? C
   C12        1.0     0.457128     0.283430     0.057501    Uiso  ? C
   C13        1.0     0.655997     0.055243     0.060258    Uiso  ? C
   C14        1.0     0.756045     0.111077     0.056691    Uiso  ? C
   C15        1.0     0.757357     0.222570     0.056342    Uiso  ? C
   C16        1.0     0.659370     0.282293     0.061721    Uiso  ? C
   C17        1.0     0.855570     0.054677     0.053484    Uiso  ? C
   C18        1.0     0.955939     0.110062     0.050374    Uiso  ? C
   C19        1.0     0.956878     0.220944     0.049086    Uiso  ? C
   C20        1.0     0.857433     0.276853     0.051659    Uiso  ? C
   C21        1.0     0.056133     0.387817     0.045129    Uiso  ? C
   C22        1.0     0.154623     0.444056     0.044994    Uiso  ? C
   C23        1.0     0.154454     0.555558     0.045162    Uiso  ? C
   C24        1.0     0.055212     0.610899     0.045581    Uiso  ? C
   C25        1.0     0.254087     0.388286     0.047159    Uiso  ? C
   C26        1.0     0.351689     0.444739     0.050903    Uiso  ? C
   C27        1.0     0.352049     0.556437     0.052097    Uiso  ? C
   C28        1.0     0.253508     0.612076     0.047688    Uiso  ? C
   C29        1.0     0.758771     0.443511     0.055603    Uiso  ? C
   C30        1.0     0.857990     0.387577     0.050106    Uiso  ? C
   C31        1.0     0.956673     0.443523     0.046157    Uiso  ? C
   C32        1.0     0.956204     0.554207     0.046293    Uiso  ? C
   C33        1.0     0.855567     0.608230     0.049055    Uiso  ? C
   C34        1.0     0.055668     0.722375     0.046898    Uiso  ? C
   C35        1.0     0.154989     0.778268     0.047828    Uiso  ? C
   C36        1.0     0.155813     0.889350     0.049059    Uiso  ? C
   C37        1.0     0.055603     0.944276     0.049407    Uiso  ? C
   C38        1.0     0.254605     0.722763     0.049071    Uiso  ? C
   C39        1.0     0.354666     0.776843     0.053941    Uiso  ? C
   C40        1.0     0.356081     0.888536     0.054531    Uiso  ? C
   C41        1.0     0.256269     0.944702     0.051118    Uiso  ? C
   C42        1.0     0.453849     0.718134     0.061431    Uiso  ? C
   C43        1.0     0.554954     0.886903     0.063964    Uiso  ? C
   C44        1.0     0.455853     0.944922     0.058813    Uiso  ? C
   C45        1.0     0.755100     0.885927     0.058630    Uiso  ? C
   C46        1.0     0.655613     0.943799     0.061929    Uiso  ? C
   C47        1.0     0.856470     0.721618     0.051582    Uiso  ? C
   C48        1.0     0.955742     0.777606     0.049226    Uiso  ? C
   C49        1.0     0.955450     0.888598     0.050689    Uiso  ? C
   C50        1.0     0.854961     0.943064     0.053926    Uiso  ? C
   C51        1.0     0.452814     0.395039     0.057223    Uiso  ? C
   C52        1.0     0.756281     0.554564     0.053832    Uiso  ? C
   C53        1.0     0.551682     0.777088     0.069557    Uiso  ? C
   C54        1.0     0.756760     0.774546     0.059253    Uiso  ? C
   C55        1.0     0.452708     0.605546     0.061857    Uiso  ? C
   N1         1.0     0.663375     0.388437     0.064946    Uiso  ? N
   Fe1        1.0     0.653965     0.670043     0.086851    Uiso  ? Fe
   Ni1        1.0     0.558808     0.493793     0.077086    Uiso  ? Ni
   O1         1.0     0.619222     0.577760     0.158349    Uiso  ? O
   H1         1.0     0.555798     0.602781     0.182815    Uiso  ? H
