
#======================================================================
# CRYSTAL DATA
#----------------------------------------------------------------------
data_VESTA_phase_1

_chemical_name_common                  'CONTCAR\(2)\(3)                       '
_cell_length_a                         12.331300
_cell_length_b                         12.829200
_cell_length_c                         19.994400
_cell_angle_alpha                      89.996696
_cell_angle_beta                       89.998299
_cell_angle_gamma                      89.999496
_cell_volume                           3163.128245
_space_group_name_H-M_alt              'P 1'
_space_group_IT_number                 1

loop_
_space_group_symop_operation_xyz
   'x, y, z'

loop_
   _atom_site_label
   _atom_site_occupancy
   _atom_site_fract_x
   _atom_site_fract_y
   _atom_site_fract_z
   _atom_site_adp_type
   _atom_site_U_iso_or_equiv
   _atom_site_type_symbol
   C1         1.0     0.056130     0.054499     0.051385    Uiso  ? C
   C2         1.0     0.156396     0.109887     0.050262    Uiso  ? C
   C3         1.0     0.156341     0.220737     0.048602    Uiso  ? C
   C4         1.0     0.056249     0.276079     0.047903    Uiso  ? C
   C5         1.0     0.257016     0.055154     0.051591    Uiso  ? C
   C6         1.0     0.357147     0.111703     0.054284    Uiso  ? C
   C7         1.0     0.357155     0.223467     0.053680    Uiso  ? C
   C8         1.0     0.256005     0.276658     0.049168    Uiso  ? C
   C9         1.0     0.456905     0.055968     0.057964    Uiso  ? C
   C10        1.0     0.556907     0.113505     0.061802    Uiso  ? C
   C11        1.0     0.557127     0.225462     0.063377    Uiso  ? C
   C12        1.0     0.456816     0.282389     0.058604    Uiso  ? C
   C13        1.0     0.656253     0.054417     0.062639    Uiso  ? C
   C14        1.0     0.756225     0.110605     0.060268    Uiso  ? C
   C15        1.0     0.757230     0.222273     0.059825    Uiso  ? C
   C16        1.0     0.659189     0.281948     0.065030    Uiso  ? C
   C17        1.0     0.855637     0.054060     0.057144    Uiso  ? C
   C18        1.0     0.955863     0.109569     0.053131    Uiso  ? C
   C19        1.0     0.956506     0.220566     0.051405    Uiso  ? C
   C20        1.0     0.857091     0.276812     0.054659    Uiso  ? C
   C21        1.0     0.055657     0.387249     0.045707    Uiso  ? C
   C22        1.0     0.154382     0.443269     0.044876    Uiso  ? C
   C23        1.0     0.154568     0.554861     0.044693    Uiso  ? C
   C24        1.0     0.055440     0.610398     0.045432    Uiso  ? C
   C25        1.0     0.253738     0.387311     0.047175    Uiso  ? C
   C26        1.0     0.351606     0.443469     0.050580    Uiso  ? C
   C27        1.0     0.352372     0.555396     0.050559    Uiso  ? C
   C28        1.0     0.253784     0.611235     0.046629    Uiso  ? C
   C29        1.0     0.757919     0.443875     0.059582    Uiso  ? C
   C30        1.0     0.857366     0.387826     0.052748    Uiso  ? C
   C31        1.0     0.956254     0.443178     0.047141    Uiso  ? C
   C32        1.0     0.956287     0.553901     0.046826    Uiso  ? C
   C33        1.0     0.856578     0.608650     0.051978    Uiso  ? C
   C34        1.0     0.055899     0.721838     0.047393    Uiso  ? C
   C35        1.0     0.155415     0.777606     0.047940    Uiso  ? C
   C36        1.0     0.156038     0.888689     0.049723    Uiso  ? C
   C37        1.0     0.055851     0.943728     0.051439    Uiso  ? C
   C38        1.0     0.255080     0.721927     0.048256    Uiso  ? C
   C39        1.0     0.355391     0.775978     0.052277    Uiso  ? C
   C40        1.0     0.356629     0.887673     0.053129    Uiso  ? C
   C41        1.0     0.256603     0.943892     0.050995    Uiso  ? C
   C42        1.0     0.455140     0.717206     0.057576    Uiso  ? C
   C43        1.0     0.555816     0.885717     0.061489    Uiso  ? C
   C44        1.0     0.456431     0.943944     0.057411    Uiso  ? C
   C45        1.0     0.755516     0.884636     0.063173    Uiso  ? C
   C46        1.0     0.656187     0.943044     0.063486    Uiso  ? C
   C47        1.0     0.856906     0.721443     0.055917    Uiso  ? C
   C48        1.0     0.956143     0.777232     0.051552    Uiso  ? C
   C49        1.0     0.955758     0.888063     0.053819    Uiso  ? C
   C50        1.0     0.855242     0.942245     0.058112    Uiso  ? C
   C51        1.0     0.452179     0.393503     0.057569    Uiso  ? C
   C52        1.0     0.757677     0.555635     0.057837    Uiso  ? C
   C53        1.0     0.553367     0.775953     0.062936    Uiso  ? C
   C54        1.0     0.756980     0.772909     0.065318    Uiso  ? C
   C55        1.0     0.452889     0.604748     0.059000    Uiso  ? C
   N1         1.0     0.663081     0.388317     0.069071    Uiso  ? N
   Fe1        1.0     0.648181     0.664922     0.086928    Uiso  ? Fe
   Ni1        1.0     0.556459     0.492947     0.081073    Uiso  ? Ni
   O1         1.0     0.624652     0.577816     0.148662    Uiso  ? O
