
#======================================================================
# CRYSTAL DATA
#----------------------------------------------------------------------
data_VESTA_phase_1

_chemical_name_common                  'POSCAR                                '
_cell_length_a                         12.331300
_cell_length_b                         12.829200
_cell_length_c                         19.994400
_cell_angle_alpha                      89.996696
_cell_angle_beta                       89.998299
_cell_angle_gamma                      89.999496
_cell_volume                           3163.128245
_space_group_name_H-M_alt              'P 1'
_space_group_IT_number                 1

loop_
_space_group_symop_operation_xyz
   'x, y, z'

loop_
   _atom_site_label
   _atom_site_occupancy
   _atom_site_fract_x
   _atom_site_fract_y
   _atom_site_fract_z
   _atom_site_adp_type
   _atom_site_U_iso_or_equiv
   _atom_site_type_symbol
   C1         1.0     0.055719     0.052143     0.052943    Uiso  ? C
   C2         1.0     0.155932     0.108059     0.052811    Uiso  ? C
   C3         1.0     0.156559     0.218992     0.052072    Uiso  ? C
   C4         1.0     0.056560     0.274026     0.050921    Uiso  ? C
   C5         1.0     0.256371     0.053704     0.053757    Uiso  ? C
   C6         1.0     0.356435     0.110536     0.055246    Uiso  ? C
   C7         1.0     0.357203     0.222282     0.055203    Uiso  ? C
   C8         1.0     0.256098     0.275371     0.052992    Uiso  ? C
   C9         1.0     0.456129     0.054807     0.057045    Uiso  ? C
   C10        1.0     0.556513     0.111646     0.058758    Uiso  ? C
   C11        1.0     0.557209     0.223674     0.059224    Uiso  ? C
   C12        1.0     0.457289     0.281190     0.057484    Uiso  ? C
   C13        1.0     0.655641     0.052814     0.058997    Uiso  ? C
   C14        1.0     0.755843     0.108250     0.056773    Uiso  ? C
   C15        1.0     0.757444     0.219527     0.055832    Uiso  ? C
   C16        1.0     0.659244     0.279073     0.059115    Uiso  ? C
   C17        1.0     0.855156     0.051379     0.055193    Uiso  ? C
   C18        1.0     0.955597     0.106887     0.053221    Uiso  ? C
   C19        1.0     0.956987     0.217892     0.051845    Uiso  ? C
   C20        1.0     0.857754     0.273694     0.052525    Uiso  ? C
   C21        1.0     0.056489     0.385238     0.050019    Uiso  ? C
   C22        1.0     0.154879     0.441671     0.050647    Uiso  ? C
   C23        1.0     0.154518     0.553149     0.050526    Uiso  ? C
   C24        1.0     0.054582     0.608235     0.050415    Uiso  ? C
   C25        1.0     0.254418     0.386203     0.052251    Uiso  ? C
   C26        1.0     0.352377     0.442682     0.053931    Uiso  ? C
   C27        1.0     0.353231     0.554603     0.053881    Uiso  ? C
   C28        1.0     0.253481     0.609728     0.051738    Uiso  ? C
   C29        1.0     0.759830     0.439906     0.054339    Uiso  ? C
   C30        1.0     0.858860     0.384343     0.050941    Uiso  ? C
   C31        1.0     0.957109     0.440793     0.049652    Uiso  ? C
   C32        1.0     0.955635     0.551519     0.050284    Uiso  ? C
   C33        1.0     0.854431     0.605409     0.051547    Uiso  ? C
   C34        1.0     0.054612     0.719525     0.051035    Uiso  ? C
   C35        1.0     0.153910     0.775570     0.051505    Uiso  ? C
   C36        1.0     0.154919     0.886620     0.052380    Uiso  ? C
   C37        1.0     0.054711     0.941318     0.052911    Uiso  ? C
   C38        1.0     0.253654     0.720279     0.051922    Uiso  ? C
   C39        1.0     0.353534     0.774971     0.053819    Uiso  ? C
   C40        1.0     0.355106     0.886596     0.054600    Uiso  ? C
   C41        1.0     0.255373     0.942339     0.053394    Uiso  ? C
   C42        1.0     0.453016     0.717059     0.057148    Uiso  ? C
   C43        1.0     0.554396     0.885984     0.060133    Uiso  ? C
   C44        1.0     0.455063     0.943176     0.056970    Uiso  ? C
   C45        1.0     0.753792     0.882098     0.059004    Uiso  ? C
   C46        1.0     0.655021     0.941377     0.060183    Uiso  ? C
   C47        1.0     0.854951     0.718420     0.054074    Uiso  ? C
   C48        1.0     0.954324     0.774421     0.052472    Uiso  ? C
   C49        1.0     0.954520     0.885463     0.053706    Uiso  ? C
   C50        1.0     0.853956     0.939584     0.055894    Uiso  ? C
   C51        1.0     0.453462     0.392618     0.056798    Uiso  ? C
   C52        1.0     0.755075     0.550887     0.053876    Uiso  ? C
   C53        1.0     0.551486     0.776341     0.062782    Uiso  ? C
   C54        1.0     0.753853     0.770068     0.059364    Uiso  ? C
   C55        1.0     0.454283     0.604947     0.057502    Uiso  ? C
   N1         1.0     0.663924     0.385128     0.060848    Uiso  ? N
   Fe1        1.0     0.642124     0.665957     0.075197    Uiso  ? Fe
   Ni1        1.0     0.564305     0.492927     0.065239    Uiso  ? Ni
   H1         1.0     0.637119     0.693929     0.147092    Uiso  ? H
   H2         1.0     0.617951     0.572521     0.125612    Uiso  ? H
