
#======================================================================
# CRYSTAL DATA
#----------------------------------------------------------------------
data_VESTA_phase_1

_chemical_name_common                  'CONTCAR\(2)\(3)                       '
_cell_length_a                         12.331300
_cell_length_b                         12.829200
_cell_length_c                         19.994400
_cell_angle_alpha                      89.996696
_cell_angle_beta                       89.998299
_cell_angle_gamma                      89.999496
_cell_volume                           3163.128245
_space_group_name_H-M_alt              'P 1'
_space_group_IT_number                 1

loop_
_space_group_symop_operation_xyz
   'x, y, z'

loop_
   _atom_site_label
   _atom_site_occupancy
   _atom_site_fract_x
   _atom_site_fract_y
   _atom_site_fract_z
   _atom_site_adp_type
   _atom_site_U_iso_or_equiv
   _atom_site_type_symbol
   C1         1.0     0.056659     0.052437     0.046024    Uiso  ? C
   C2         1.0     0.156958     0.107759     0.044701    Uiso  ? C
   C3         1.0     0.156934     0.218689     0.042673    Uiso  ? C
   C4         1.0     0.056693     0.274171     0.043399    Uiso  ? C
   C5         1.0     0.257597     0.053015     0.046448    Uiso  ? C
   C6         1.0     0.357811     0.109656     0.049127    Uiso  ? C
   C7         1.0     0.358049     0.221536     0.046727    Uiso  ? C
   C8         1.0     0.256607     0.274573     0.041757    Uiso  ? C
   C9         1.0     0.457398     0.053675     0.054755    Uiso  ? C
   C10        1.0     0.557032     0.111424     0.059325    Uiso  ? C
   C11        1.0     0.557354     0.223772     0.059378    Uiso  ? C
   C12        1.0     0.457781     0.280778     0.051204    Uiso  ? C
   C13        1.0     0.656299     0.052412     0.061568    Uiso  ? C
   C14        1.0     0.756523     0.108459     0.058040    Uiso  ? C
   C15        1.0     0.757778     0.219941     0.058681    Uiso  ? C
   C16        1.0     0.659565     0.279723     0.064034    Uiso  ? C
   C17        1.0     0.856301     0.052535     0.053323    Uiso  ? C
   C18        1.0     0.956470     0.107736     0.048710    Uiso  ? C
   C19        1.0     0.957112     0.218578     0.047928    Uiso  ? C
   C20        1.0     0.857676     0.274394     0.053239    Uiso  ? C
   C21        1.0     0.055837     0.385299     0.041570    Uiso  ? C
   C22        1.0     0.154416     0.441263     0.038261    Uiso  ? C
   C23        1.0     0.153867     0.552857     0.037957    Uiso  ? C
   C24        1.0     0.054518     0.608271     0.040468    Uiso  ? C
   C25        1.0     0.254116     0.385302     0.038723    Uiso  ? C
   C26        1.0     0.352006     0.441719     0.039899    Uiso  ? C
   C27        1.0     0.351789     0.553370     0.040875    Uiso  ? C
   C28        1.0     0.253157     0.609273     0.038878    Uiso  ? C
   C29        1.0     0.759539     0.441033     0.064751    Uiso  ? C
   C30        1.0     0.858094     0.385333     0.053637    Uiso  ? C
   C31        1.0     0.956306     0.441078     0.045957    Uiso  ? C
   C32        1.0     0.955222     0.551813     0.045083    Uiso  ? C
   C33        1.0     0.855148     0.605941     0.053529    Uiso  ? C
   C34        1.0     0.055868     0.719696     0.041621    Uiso  ? C
   C35        1.0     0.155621     0.775464     0.041660    Uiso  ? C
   C36        1.0     0.156444     0.886519     0.043948    Uiso  ? C
   C37        1.0     0.056232     0.941672     0.045456    Uiso  ? C
   C38        1.0     0.255450     0.719853     0.041651    Uiso  ? C
   C39        1.0     0.356290     0.773338     0.047655    Uiso  ? C
   C40        1.0     0.357118     0.885122     0.049963    Uiso  ? C
   C41        1.0     0.257165     0.941563     0.046370    Uiso  ? C
   C42        1.0     0.455813     0.713926     0.055239    Uiso  ? C
   C43        1.0     0.555490     0.882896     0.064638    Uiso  ? C
   C44        1.0     0.456894     0.941270     0.056042    Uiso  ? C
   C45        1.0     0.756632     0.884466     0.061324    Uiso  ? C
   C46        1.0     0.655928     0.940960     0.064669    Uiso  ? C
   C47        1.0     0.857048     0.719248     0.052521    Uiso  ? C
   C48        1.0     0.956087     0.775115     0.045839    Uiso  ? C
   C49        1.0     0.955981     0.886153     0.047786    Uiso  ? C
   C50        1.0     0.856056     0.941172     0.053548    Uiso  ? C
   C51        1.0     0.453674     0.392353     0.046608    Uiso  ? C
   C52        1.0     0.757568     0.552558     0.067550    Uiso  ? C
   C53        1.0     0.552660     0.771994     0.070200    Uiso  ? C
   C54        1.0     0.760214     0.774313     0.063967    Uiso  ? C
   C55        1.0     0.452606     0.601788     0.050653    Uiso  ? C
   N1         1.0     0.663575     0.385500     0.070568    Uiso  ? N
   Fe1        1.0     0.662019     0.681462     0.110653    Uiso  ? Fe
   Ni1        1.0     0.557233     0.492237     0.070333    Uiso  ? Ni
   O1         1.0     0.579294     0.570329     0.155438    Uiso  ? O
   O2         1.0     0.729307     0.718526     0.190421    Uiso  ? O
   H1         1.0     0.710642     0.665519     0.223607    Uiso  ? H
   H2         1.0     0.506852     0.594432     0.167601    Uiso  ? H
