
#======================================================================
# CRYSTAL DATA
#----------------------------------------------------------------------
data_VESTA_phase_1

_chemical_name_common                  'CONTCAR\(2)\(3)                       '
_cell_length_a                         12.331300
_cell_length_b                         12.829200
_cell_length_c                         19.994400
_cell_angle_alpha                      89.996696
_cell_angle_beta                       89.998299
_cell_angle_gamma                      89.999496
_cell_volume                           3163.128245
_space_group_name_H-M_alt              'P 1'
_space_group_IT_number                 1

loop_
_space_group_symop_operation_xyz
   'x, y, z'

loop_
   _atom_site_label
   _atom_site_occupancy
   _atom_site_fract_x
   _atom_site_fract_y
   _atom_site_fract_z
   _atom_site_adp_type
   _atom_site_U_iso_or_equiv
   _atom_site_type_symbol
   C1         1.0     0.055926     0.051756     0.051141    Uiso  ? C
   C2         1.0     0.156195     0.107451     0.049774    Uiso  ? C
   C3         1.0     0.156377     0.218440     0.048620    Uiso  ? C
   C4         1.0     0.056240     0.273808     0.048563    Uiso  ? C
   C5         1.0     0.256789     0.052750     0.050110    Uiso  ? C
   C6         1.0     0.356937     0.109475     0.051545    Uiso  ? C
   C7         1.0     0.357296     0.221579     0.050970    Uiso  ? C
   C8         1.0     0.256042     0.274698     0.048501    Uiso  ? C
   C9         1.0     0.456608     0.053207     0.054025    Uiso  ? C
   C10        1.0     0.556464     0.110855     0.056919    Uiso  ? C
   C11        1.0     0.556887     0.222775     0.056586    Uiso  ? C
   C12        1.0     0.457317     0.280853     0.053170    Uiso  ? C
   C13        1.0     0.655703     0.052273     0.059275    Uiso  ? C
   C14        1.0     0.756012     0.107740     0.057947    Uiso  ? C
   C15        1.0     0.757292     0.219003     0.057036    Uiso  ? C
   C16        1.0     0.658844     0.278032     0.058351    Uiso  ? C
   C17        1.0     0.855600     0.051520     0.056015    Uiso  ? C
   C18        1.0     0.955883     0.106904     0.052837    Uiso  ? C
   C19        1.0     0.956721     0.217891     0.051441    Uiso  ? C
   C20        1.0     0.857211     0.273698     0.053600    Uiso  ? C
   C21        1.0     0.055615     0.385059     0.046924    Uiso  ? C
   C22        1.0     0.154262     0.441175     0.045712    Uiso  ? C
   C23        1.0     0.153610     0.552591     0.045187    Uiso  ? C
   C24        1.0     0.053533     0.607687     0.046248    Uiso  ? C
   C25        1.0     0.254002     0.385535     0.047069    Uiso  ? C
   C26        1.0     0.352080     0.442053     0.048278    Uiso  ? C
   C27        1.0     0.352878     0.553861     0.047560    Uiso  ? C
   C28        1.0     0.253346     0.608930     0.045719    Uiso  ? C
   C29        1.0     0.757900     0.439886     0.057372    Uiso  ? C
   C30        1.0     0.857663     0.384611     0.052421    Uiso  ? C
   C31        1.0     0.955894     0.440738     0.048466    Uiso  ? C
   C32        1.0     0.953661     0.551465     0.048170    Uiso  ? C
   C33        1.0     0.851927     0.605181     0.052358    Uiso  ? C
   C34        1.0     0.054589     0.719014     0.047431    Uiso  ? C
   C35        1.0     0.154588     0.774894     0.046964    Uiso  ? C
   C36        1.0     0.155485     0.885905     0.048758    Uiso  ? C
   C37        1.0     0.055239     0.940838     0.050923    Uiso  ? C
   C38        1.0     0.254659     0.719558     0.046370    Uiso  ? C
   C39        1.0     0.355537     0.773375     0.048713    Uiso  ? C
   C40        1.0     0.356176     0.885031     0.050277    Uiso  ? C
   C41        1.0     0.256221     0.941240     0.049436    Uiso  ? C
   C42        1.0     0.455775     0.714762     0.051560    Uiso  ? C
   C43        1.0     0.555570     0.883079     0.058386    Uiso  ? C
   C44        1.0     0.456170     0.941111     0.053604    Uiso  ? C
   C45        1.0     0.754659     0.883583     0.061554    Uiso  ? C
   C46        1.0     0.655204     0.940945     0.061233    Uiso  ? C
   C47        1.0     0.854501     0.718021     0.054931    Uiso  ? C
   C48        1.0     0.954448     0.774044     0.051279    Uiso  ? C
   C49        1.0     0.954989     0.885131     0.053202    Uiso  ? C
   C50        1.0     0.854890     0.940033     0.056934    Uiso  ? C
   C51        1.0     0.453325     0.392358     0.051673    Uiso  ? C
   C52        1.0     0.751042     0.551886     0.058111    Uiso  ? C
   C53        1.0     0.554334     0.772544     0.059960    Uiso  ? C
   C54        1.0     0.755878     0.772530     0.064012    Uiso  ? C
   C55        1.0     0.455460     0.602925     0.050511    Uiso  ? C
   N1         1.0     0.662899     0.383866     0.059857    Uiso  ? N
   Fe1        1.0     0.653613     0.675843     0.099277    Uiso  ? Fe
   Ni1        1.0     0.564963     0.492944     0.055070    Uiso  ? Ni
   O1         1.0     0.659267     0.608948     0.182292    Uiso  ? O
   O2         1.0     0.612242     0.707319     0.183762    Uiso  ? O
