
#======================================================================
# CRYSTAL DATA
#----------------------------------------------------------------------
data_VESTA_phase_1

_chemical_name_common                  'POSCAR\(2)                            '
_cell_length_a                         12.331300
_cell_length_b                         12.829200
_cell_length_c                         19.994400
_cell_angle_alpha                      89.996696
_cell_angle_beta                       89.998299
_cell_angle_gamma                      89.999496
_cell_volume                           3163.128245
_space_group_name_H-M_alt              'P 1'
_space_group_IT_number                 1

loop_
_space_group_symop_operation_xyz
   'x, y, z'

loop_
   _atom_site_label
   _atom_site_occupancy
   _atom_site_fract_x
   _atom_site_fract_y
   _atom_site_fract_z
   _atom_site_adp_type
   _atom_site_U_iso_or_equiv
   _atom_site_type_symbol
   C1         1.0     0.056606     0.053850     0.055779    Uiso  ? C
   C2         1.0     0.156553     0.110138     0.055801    Uiso  ? C
   C3         1.0     0.157340     0.221143     0.055783    Uiso  ? C
   C4         1.0     0.057610     0.275947     0.055750    Uiso  ? C
   C5         1.0     0.256803     0.055849     0.055805    Uiso  ? C
   C6         1.0     0.356852     0.112913     0.055757    Uiso  ? C
   C7         1.0     0.357889     0.224680     0.055726    Uiso  ? C
   C8         1.0     0.257003     0.277804     0.055768    Uiso  ? C
   C9         1.0     0.456162     0.057215     0.055731    Uiso  ? C
   C10        1.0     0.556857     0.113471     0.055697    Uiso  ? C
   C11        1.0     0.557756     0.224655     0.055669    Uiso  ? C
   C12        1.0     0.458294     0.283181     0.055674    Uiso  ? C
   C13        1.0     0.656300     0.054888     0.055702    Uiso  ? C
   C14        1.0     0.756956     0.109485     0.055705    Uiso  ? C
   C15        1.0     0.758684     0.220305     0.055680    Uiso  ? C
   C16        1.0     0.660154     0.278673     0.055654    Uiso  ? C
   C17        1.0     0.856291     0.053238     0.055718    Uiso  ? C
   C18        1.0     0.956840     0.108586     0.055739    Uiso  ? C
   C19        1.0     0.958311     0.219318     0.055719    Uiso  ? C
   C20        1.0     0.859042     0.274407     0.055681    Uiso  ? C
   C21        1.0     0.057498     0.387302     0.055748    Uiso  ? C
   C22        1.0     0.155862     0.443737     0.055775    Uiso  ? C
   C23        1.0     0.155123     0.555172     0.055785    Uiso  ? C
   C24        1.0     0.054799     0.609707     0.055762    Uiso  ? C
   C25        1.0     0.255630     0.388580     0.055770    Uiso  ? C
   C26        1.0     0.354142     0.444943     0.055726    Uiso  ? C
   C27        1.0     0.355574     0.557262     0.055728    Uiso  ? C
   C28        1.0     0.255030     0.611660     0.055782    Uiso  ? C
   C29        1.0     0.760852     0.438677     0.055632    Uiso  ? C
   C30        1.0     0.860275     0.384766     0.055665    Uiso  ? C
   C31        1.0     0.957843     0.442265     0.055704    Uiso  ? C
   C32        1.0     0.954974     0.553063     0.055710    Uiso  ? C
   C33        1.0     0.852643     0.605896     0.055671    Uiso  ? C
   C34        1.0     0.054843     0.721140     0.055779    Uiso  ? C
   C35        1.0     0.154213     0.777271     0.055815    Uiso  ? C
   C36        1.0     0.155315     0.888374     0.055822    Uiso  ? C
   C37        1.0     0.055332     0.942901     0.055790    Uiso  ? C
   C38        1.0     0.254211     0.722310     0.055801    Uiso  ? C
   C39        1.0     0.353729     0.777412     0.055771    Uiso  ? C
   C40        1.0     0.355279     0.889029     0.055793    Uiso  ? C
   C41        1.0     0.255597     0.944522     0.055826    Uiso  ? C
   C42        1.0     0.453802     0.720269     0.055685    Uiso  ? C
   C43        1.0     0.554117     0.889397     0.055685    Uiso  ? C
   C44        1.0     0.454764     0.946043     0.055742    Uiso  ? C
   C45        1.0     0.754442     0.885659     0.055660    Uiso  ? C
   C46        1.0     0.655488     0.944234     0.055679    Uiso  ? C
   C47        1.0     0.854405     0.719820     0.055679    Uiso  ? C
   C48        1.0     0.954550     0.775748     0.055739    Uiso  ? C
   C49        1.0     0.955072     0.886941     0.055748    Uiso  ? C
   C50        1.0     0.855002     0.941846     0.055708    Uiso  ? C
   C51        1.0     0.454556     0.394387     0.055659    Uiso  ? C
   C52        1.0     0.752769     0.549051     0.055625    Uiso  ? C
   C53        1.0     0.550547     0.781082     0.055630    Uiso  ? C
   C54        1.0     0.754947     0.774508     0.055629    Uiso  ? C
   C55        1.0     0.457766     0.607458     0.055661    Uiso  ? C
   N1         1.0     0.664993     0.383863     0.055621    Uiso  ? N
   Fe1        1.0     0.644031     0.670543     0.055548    Uiso  ? Fe
   Ni1        1.0     0.569052     0.492015     0.055626    Uiso  ? Ni
