
#======================================================================
# CRYSTAL DATA
#----------------------------------------------------------------------
data_VESTA_phase_1

_chemical_name_common                  'CONTCAR\(2)                           '
_cell_length_a                         12.331300
_cell_length_b                         12.829200
_cell_length_c                         19.994400
_cell_angle_alpha                      89.996696
_cell_angle_beta                       89.998299
_cell_angle_gamma                      89.999496
_cell_volume                           3163.128245
_space_group_name_H-M_alt              'P 1'
_space_group_IT_number                 1

loop_
_space_group_symop_operation_xyz
   'x, y, z'

loop_
   _atom_site_label
   _atom_site_occupancy
   _atom_site_fract_x
   _atom_site_fract_y
   _atom_site_fract_z
   _atom_site_adp_type
   _atom_site_U_iso_or_equiv
   _atom_site_type_symbol
   C1         1.0     0.056359     0.055011     0.050875    Uiso  ? C
   C2         1.0     0.156769     0.110317     0.050217    Uiso  ? C
   C3         1.0     0.156302     0.221164     0.048803    Uiso  ? C
   C4         1.0     0.056127     0.276502     0.048412    Uiso  ? C
   C5         1.0     0.257356     0.055475     0.051891    Uiso  ? C
   C6         1.0     0.357588     0.111587     0.055403    Uiso  ? C
   C7         1.0     0.356802     0.223481     0.054393    Uiso  ? C
   C8         1.0     0.255909     0.276871     0.049396    Uiso  ? C
   C9         1.0     0.457571     0.055644     0.060225    Uiso  ? C
   C10        1.0     0.556936     0.113613     0.064141    Uiso  ? C
   C11        1.0     0.556865     0.227927     0.064533    Uiso  ? C
   C12        1.0     0.455256     0.283692     0.059015    Uiso  ? C
   C13        1.0     0.656056     0.052964     0.065096    Uiso  ? C
   C14        1.0     0.755356     0.110807     0.062039    Uiso  ? C
   C15        1.0     0.756326     0.223349     0.062226    Uiso  ? C
   C16        1.0     0.658313     0.284858     0.066903    Uiso  ? C
   C17        1.0     0.855209     0.054411     0.057772    Uiso  ? C
   C18        1.0     0.955722     0.109698     0.053595    Uiso  ? C
   C19        1.0     0.956325     0.220905     0.052522    Uiso  ? C
   C20        1.0     0.857024     0.277083     0.056679    Uiso  ? C
   C21        1.0     0.056313     0.387601     0.045808    Uiso  ? C
   C22        1.0     0.155296     0.443527     0.043715    Uiso  ? C
   C23        1.0     0.155628     0.554459     0.042511    Uiso  ? C
   C24        1.0     0.057079     0.610849     0.043146    Uiso  ? C
   C25        1.0     0.254611     0.387882     0.046746    Uiso  ? C
   C26        1.0     0.353328     0.442526     0.050690    Uiso  ? C
   C27        1.0     0.353175     0.555094     0.051480    Uiso  ? C
   C28        1.0     0.254421     0.610296     0.045385    Uiso  ? C
   C29        1.0     0.761146     0.445386     0.063771    Uiso  ? C
   C30        1.0     0.858591     0.388229     0.055252    Uiso  ? C
   C31        1.0     0.957361     0.443916     0.048329    Uiso  ? C
   C32        1.0     0.958130     0.555160     0.047005    Uiso  ? C
   C33        1.0     0.859512     0.610491     0.053922    Uiso  ? C
   C34        1.0     0.056957     0.721818     0.044490    Uiso  ? C
   C35        1.0     0.155813     0.777808     0.045162    Uiso  ? C
   C36        1.0     0.156808     0.888914     0.047784    Uiso  ? C
   C37        1.0     0.056634     0.944423     0.049554    Uiso  ? C
   C38        1.0     0.254580     0.721474     0.046632    Uiso  ? C
   C39        1.0     0.353920     0.775525     0.052886    Uiso  ? C
   C40        1.0     0.356689     0.887410     0.054548    Uiso  ? C
   C41        1.0     0.257034     0.943859     0.050849    Uiso  ? C
   C42        1.0     0.450687     0.716164     0.062120    Uiso  ? C
   C43        1.0     0.554318     0.882461     0.067611    Uiso  ? C
   C44        1.0     0.456830     0.942985     0.060766    Uiso  ? C
   C45        1.0     0.757494     0.882498     0.062882    Uiso  ? C
   C46        1.0     0.655976     0.939280     0.066609    Uiso  ? C
   C47        1.0     0.859724     0.723369     0.054289    Uiso  ? C
   C48        1.0     0.957783     0.778141     0.049022    Uiso  ? C
   C49        1.0     0.956876     0.889039     0.051637    Uiso  ? C
   C50        1.0     0.855819     0.942266     0.057418    Uiso  ? C
   C51        1.0     0.761424     0.556558     0.064409    Uiso  ? C
   C52        1.0     0.548839     0.771382     0.073332    Uiso  ? C
   N1         1.0     0.450228     0.391294     0.057382    Uiso  ? N
   N2         1.0     0.448525     0.606429     0.061421    Uiso  ? N
   N3         1.0     0.663770     0.392513     0.071441    Uiso  ? N
   N4         1.0     0.762402     0.773967     0.062520    Uiso  ? N
   Fe1        1.0     0.653211     0.662629     0.082063    Uiso  ? Fe
   Ni1        1.0     0.555273     0.498203     0.074586    Uiso  ? Ni
   H1         1.0     0.605142     0.575516     0.132811    Uiso  ? H
