
#======================================================================
# CRYSTAL DATA
#----------------------------------------------------------------------
data_VESTA_phase_1

_chemical_name_common                  'CONTCAR\(2)                           '
_cell_length_a                         12.331300
_cell_length_b                         12.829200
_cell_length_c                         19.994400
_cell_angle_alpha                      89.996696
_cell_angle_beta                       89.998299
_cell_angle_gamma                      89.999496
_cell_volume                           3163.128245
_space_group_name_H-M_alt              'P 1'
_space_group_IT_number                 1

loop_
_space_group_symop_operation_xyz
   'x, y, z'

loop_
   _atom_site_label
   _atom_site_occupancy
   _atom_site_fract_x
   _atom_site_fract_y
   _atom_site_fract_z
   _atom_site_adp_type
   _atom_site_U_iso_or_equiv
   _atom_site_type_symbol
   C1         1.0     0.056579     0.055141     0.049497    Uiso  ? C
   C2         1.0     0.156946     0.110338     0.049130    Uiso  ? C
   C3         1.0     0.156416     0.221217     0.047971    Uiso  ? C
   C4         1.0     0.056275     0.276763     0.047557    Uiso  ? C
   C5         1.0     0.257619     0.055294     0.050854    Uiso  ? C
   C6         1.0     0.357881     0.111355     0.054039    Uiso  ? C
   C7         1.0     0.356970     0.223412     0.053301    Uiso  ? C
   C8         1.0     0.256019     0.276880     0.048775    Uiso  ? C
   C9         1.0     0.457829     0.055183     0.058452    Uiso  ? C
   C10        1.0     0.557057     0.113527     0.061962    Uiso  ? C
   C11        1.0     0.556906     0.227635     0.062379    Uiso  ? C
   C12        1.0     0.455282     0.283650     0.057939    Uiso  ? C
   C13        1.0     0.656170     0.053291     0.062616    Uiso  ? C
   C14        1.0     0.755598     0.110817     0.059318    Uiso  ? C
   C15        1.0     0.756540     0.223123     0.059304    Uiso  ? C
   C16        1.0     0.658572     0.284066     0.063570    Uiso  ? C
   C17        1.0     0.855563     0.054833     0.055330    Uiso  ? C
   C18        1.0     0.956032     0.110089     0.051730    Uiso  ? C
   C19        1.0     0.956476     0.221225     0.050936    Uiso  ? C
   C20        1.0     0.857033     0.277370     0.054533    Uiso  ? C
   C21        1.0     0.056195     0.387870     0.045565    Uiso  ? C
   C22        1.0     0.155163     0.443663     0.043984    Uiso  ? C
   C23        1.0     0.155174     0.554612     0.043312    Uiso  ? C
   C24        1.0     0.056226     0.610890     0.043867    Uiso  ? C
   C25        1.0     0.254566     0.387865     0.046505    Uiso  ? C
   C26        1.0     0.353363     0.442589     0.050210    Uiso  ? C
   C27        1.0     0.353505     0.555252     0.050157    Uiso  ? C
   C28        1.0     0.254234     0.610316     0.045574    Uiso  ? C
   C29        1.0     0.759791     0.445438     0.059814    Uiso  ? C
   C30        1.0     0.858256     0.388516     0.053351    Uiso  ? C
   C31        1.0     0.956952     0.444270     0.047731    Uiso  ? C
   C32        1.0     0.956821     0.555476     0.046701    Uiso  ? C
   C33        1.0     0.856756     0.610591     0.051839    Uiso  ? C
   C34        1.0     0.056849     0.721902     0.044774    Uiso  ? C
   C35        1.0     0.155949     0.777728     0.045371    Uiso  ? C
   C36        1.0     0.157021     0.888832     0.047442    Uiso  ? C
   C37        1.0     0.056890     0.944451     0.048539    Uiso  ? C
   C38        1.0     0.254977     0.721417     0.046674    Uiso  ? C
   C39        1.0     0.354810     0.775120     0.052108    Uiso  ? C
   C40        1.0     0.357152     0.887027     0.053644    Uiso  ? C
   C41        1.0     0.257431     0.943669     0.050212    Uiso  ? C
   C42        1.0     0.452265     0.715219     0.059209    Uiso  ? C
   C43        1.0     0.555360     0.881724     0.065317    Uiso  ? C
   C44        1.0     0.457401     0.942349     0.058972    Uiso  ? C
   C45        1.0     0.757759     0.884047     0.060218    Uiso  ? C
   C46        1.0     0.656242     0.939734     0.064279    Uiso  ? C
   C47        1.0     0.858983     0.723705     0.052365    Uiso  ? C
   C48        1.0     0.957606     0.778185     0.048200    Uiso  ? C
   C49        1.0     0.957041     0.889163     0.050185    Uiso  ? C
   C50        1.0     0.856221     0.943006     0.054898    Uiso  ? C
   C51        1.0     0.757422     0.556937     0.060102    Uiso  ? C
   C52        1.0     0.550831     0.769963     0.070272    Uiso  ? C
   N1         1.0     0.450124     0.391484     0.057256    Uiso  ? N
   N2         1.0     0.449801     0.606063     0.057207    Uiso  ? N
   N3         1.0     0.663456     0.391425     0.066294    Uiso  ? N
   N4         1.0     0.762325     0.775786     0.060513    Uiso  ? N
   Fe1        1.0     0.662786     0.672951     0.093135    Uiso  ? Fe
   Ni1        1.0     0.556486     0.496923     0.073351    Uiso  ? Ni
   O1         1.0     0.601366     0.587343     0.157366    Uiso  ? O
   H1         1.0     0.536704     0.618390     0.177392    Uiso  ? H
