
#======================================================================
# CRYSTAL DATA
#----------------------------------------------------------------------
data_VESTA_phase_1

_chemical_name_common                  'CONTCAR\(2)                           '
_cell_length_a                         12.331300
_cell_length_b                         12.829200
_cell_length_c                         19.994400
_cell_angle_alpha                      89.996696
_cell_angle_beta                       89.998299
_cell_angle_gamma                      89.999496
_cell_volume                           3163.128245
_space_group_name_H-M_alt              'P 1'
_space_group_IT_number                 1

loop_
_space_group_symop_operation_xyz
   'x, y, z'

loop_
   _atom_site_label
   _atom_site_occupancy
   _atom_site_fract_x
   _atom_site_fract_y
   _atom_site_fract_z
   _atom_site_adp_type
   _atom_site_U_iso_or_equiv
   _atom_site_type_symbol
   C1         1.0     0.056531     0.055156     0.053604    Uiso  ? C
   C2         1.0     0.156919     0.110020     0.052181    Uiso  ? C
   C3         1.0     0.156005     0.220891     0.050653    Uiso  ? C
   C4         1.0     0.055705     0.276630     0.050242    Uiso  ? C
   C5         1.0     0.257787     0.054782     0.052655    Uiso  ? C
   C6         1.0     0.358142     0.110553     0.054891    Uiso  ? C
   C7         1.0     0.356785     0.222749     0.054406    Uiso  ? C
   C8         1.0     0.255585     0.276248     0.050543    Uiso  ? C
   C9         1.0     0.458505     0.054286     0.058027    Uiso  ? C
   C10        1.0     0.557282     0.113013     0.061693    Uiso  ? C
   C11        1.0     0.556761     0.227813     0.062661    Uiso  ? C
   C12        1.0     0.454924     0.283187     0.058648    Uiso  ? C
   C13        1.0     0.656322     0.052924     0.063085    Uiso  ? C
   C14        1.0     0.755345     0.110967     0.061609    Uiso  ? C
   C15        1.0     0.755875     0.223899     0.060961    Uiso  ? C
   C16        1.0     0.657780     0.285113     0.064079    Uiso  ? C
   C17        1.0     0.855388     0.054616     0.059114    Uiso  ? C
   C18        1.0     0.955691     0.110132     0.055626    Uiso  ? C
   C19        1.0     0.955784     0.221528     0.053925    Uiso  ? C
   C20        1.0     0.856162     0.278281     0.056450    Uiso  ? C
   C21        1.0     0.055484     0.387799     0.047359    Uiso  ? C
   C22        1.0     0.154532     0.443289     0.045343    Uiso  ? C
   C23        1.0     0.154836     0.554291     0.044456    Uiso  ? C
   C24        1.0     0.056329     0.610991     0.045673    Uiso  ? C
   C25        1.0     0.253803     0.387230     0.047749    Uiso  ? C
   C26        1.0     0.352387     0.441886     0.050727    Uiso  ? C
   C27        1.0     0.352449     0.554287     0.049349    Uiso  ? C
   C28        1.0     0.253713     0.609869     0.045763    Uiso  ? C
   C29        1.0     0.758067     0.447540     0.058994    Uiso  ? C
   C30        1.0     0.857091     0.389876     0.054140    Uiso  ? C
   C31        1.0     0.956354     0.444594     0.048743    Uiso  ? C
   C32        1.0     0.957069     0.555809     0.047694    Uiso  ? C
   C33        1.0     0.858092     0.611945     0.052467    Uiso  ? C
   C34        1.0     0.057014     0.721971     0.047561    Uiso  ? C
   C35        1.0     0.156149     0.777536     0.047867    Uiso  ? C
   C36        1.0     0.157360     0.888638     0.050459    Uiso  ? C
   C37        1.0     0.057206     0.944432     0.053009    Uiso  ? C
   C38        1.0     0.255092     0.720963     0.047466    Uiso  ? C
   C39        1.0     0.355356     0.774230     0.051052    Uiso  ? C
   C40        1.0     0.357954     0.886181     0.052743    Uiso  ? C
   C41        1.0     0.257901     0.943121     0.051575    Uiso  ? C
   C42        1.0     0.453284     0.713774     0.054630    Uiso  ? C
   C43        1.0     0.557213     0.879889     0.060598    Uiso  ? C
   C44        1.0     0.458618     0.940884     0.056888    Uiso  ? C
   C45        1.0     0.758169     0.882513     0.064254    Uiso  ? C
   C46        1.0     0.656850     0.938659     0.063833    Uiso  ? C
   C47        1.0     0.859378     0.724073     0.056405    Uiso  ? C
   C48        1.0     0.957857     0.778452     0.052287    Uiso  ? C
   C49        1.0     0.957508     0.889226     0.055293    Uiso  ? C
   C50        1.0     0.856377     0.942419     0.059719    Uiso  ? C
   C51        1.0     0.758345     0.560225     0.057959    Uiso  ? C
   C52        1.0     0.553864     0.766822     0.060845    Uiso  ? C
   N1         1.0     0.449352     0.391067     0.058191    Uiso  ? N
   N2         1.0     0.448998     0.604892     0.054290    Uiso  ? N
   N3         1.0     0.662269     0.393462     0.065797    Uiso  ? N
   N4         1.0     0.761878     0.773613     0.066365    Uiso  ? N
   Fe1        1.0     0.654946     0.663742     0.090621    Uiso  ? Fe
   Ni1        1.0     0.552784     0.499073     0.075249    Uiso  ? Ni
   O1         1.0     0.606314     0.584652     0.147650    Uiso  ? O
