
#======================================================================
# CRYSTAL DATA
#----------------------------------------------------------------------
data_VESTA_phase_1

_chemical_name_common                  'POSCAR                                '
_cell_length_a                         12.331300
_cell_length_b                         12.829200
_cell_length_c                         19.994400
_cell_angle_alpha                      89.996696
_cell_angle_beta                       89.998299
_cell_angle_gamma                      89.999496
_cell_volume                           3163.128245
_space_group_name_H-M_alt              'P 1'
_space_group_IT_number                 1

loop_
_space_group_symop_operation_xyz
   'x, y, z'

loop_
   _atom_site_label
   _atom_site_occupancy
   _atom_site_fract_x
   _atom_site_fract_y
   _atom_site_fract_z
   _atom_site_adp_type
   _atom_site_U_iso_or_equiv
   _atom_site_type_symbol
   C1         1.0     0.056610     0.052778     0.052036    Uiso  ? C
   C2         1.0     0.156928     0.108229     0.051487    Uiso  ? C
   C3         1.0     0.156477     0.219188     0.050786    Uiso  ? C
   C4         1.0     0.056333     0.274625     0.050924    Uiso  ? C
   C5         1.0     0.257560     0.053308     0.051939    Uiso  ? C
   C6         1.0     0.357804     0.109565     0.053689    Uiso  ? C
   C7         1.0     0.357121     0.221607     0.052950    Uiso  ? C
   C8         1.0     0.256099     0.275008     0.050519    Uiso  ? C
   C9         1.0     0.457833     0.053412     0.056326    Uiso  ? C
   C10        1.0     0.557155     0.111342     0.059114    Uiso  ? C
   C11        1.0     0.557120     0.225415     0.059044    Uiso  ? C
   C12        1.0     0.455856     0.281833     0.054714    Uiso  ? C
   C13        1.0     0.656183     0.051334     0.060673    Uiso  ? C
   C14        1.0     0.755642     0.108560     0.058963    Uiso  ? C
   C15        1.0     0.756504     0.220784     0.059130    Uiso  ? C
   C16        1.0     0.658306     0.281396     0.061801    Uiso  ? C
   C17        1.0     0.855568     0.052296     0.056303    Uiso  ? C
   C18        1.0     0.956100     0.107619     0.053776    Uiso  ? C
   C19        1.0     0.956595     0.218838     0.053342    Uiso  ? C
   C20        1.0     0.857208     0.274866     0.055886    Uiso  ? C
   C21        1.0     0.056341     0.385793     0.049490    Uiso  ? C
   C22        1.0     0.155365     0.441624     0.047855    Uiso  ? C
   C23        1.0     0.155318     0.552464     0.046676    Uiso  ? C
   C24        1.0     0.056183     0.608650     0.047652    Uiso  ? C
   C25        1.0     0.254888     0.386073     0.048812    Uiso  ? C
   C26        1.0     0.354044     0.440781     0.049119    Uiso  ? C
   C27        1.0     0.354514     0.553113     0.048878    Uiso  ? C
   C28        1.0     0.254831     0.608057     0.046710    Uiso  ? C
   C29        1.0     0.760170     0.442598     0.061434    Uiso  ? C
   C30        1.0     0.858527     0.385955     0.055165    Uiso  ? C
   C31        1.0     0.957073     0.442047     0.051084    Uiso  ? C
   C32        1.0     0.956324     0.553369     0.050470    Uiso  ? C
   C33        1.0     0.856093     0.608279     0.054911    Uiso  ? C
   C34        1.0     0.056641     0.719493     0.047895    Uiso  ? C
   C35        1.0     0.155865     0.775332     0.047629    Uiso  ? C
   C36        1.0     0.156966     0.886488     0.049378    Uiso  ? C
   C37        1.0     0.056814     0.941988     0.051065    Uiso  ? C
   C38        1.0     0.254959     0.719179     0.047258    Uiso  ? C
   C39        1.0     0.354950     0.773116     0.050125    Uiso  ? C
   C40        1.0     0.357167     0.885129     0.052195    Uiso  ? C
   C41        1.0     0.257296     0.941564     0.050796    Uiso  ? C
   C42        1.0     0.452749     0.713430     0.054821    Uiso  ? C
   C43        1.0     0.555436     0.880852     0.061461    Uiso  ? C
   C44        1.0     0.457250     0.940852     0.056366    Uiso  ? C
   C45        1.0     0.757360     0.881325     0.060713    Uiso  ? C
   C46        1.0     0.656265     0.937891     0.062158    Uiso  ? C
   C47        1.0     0.858248     0.721051     0.054903    Uiso  ? C
   C48        1.0     0.957060     0.775544     0.050762    Uiso  ? C
   C49        1.0     0.956919     0.886623     0.052545    Uiso  ? C
   C50        1.0     0.856088     0.940381     0.056364    Uiso  ? C
   C51        1.0     0.756106     0.553926     0.063024    Uiso  ? C
   C52        1.0     0.550700     0.769733     0.064730    Uiso  ? C
   N1         1.0     0.451429     0.389513     0.051467    Uiso  ? N
   N2         1.0     0.451934     0.604080     0.053306    Uiso  ? N
   N3         1.0     0.663507     0.388789     0.066083    Uiso  ? N
   N4         1.0     0.761207     0.773020     0.062272    Uiso  ? N
   Fe1        1.0     0.653967     0.667800     0.088412    Uiso  ? Fe
   Ni1        1.0     0.560692     0.494796     0.060860    Uiso  ? Ni
   H1         1.0     0.604211     0.658212     0.162546    Uiso  ? H
   H2         1.0     0.596572     0.592077     0.144190    Uiso  ? H
