
#======================================================================
# CRYSTAL DATA
#----------------------------------------------------------------------
data_VESTA_phase_1

_chemical_name_common                  'POSCAR\(2)                            '
_cell_length_a                         12.331300
_cell_length_b                         12.829200
_cell_length_c                         19.994400
_cell_angle_alpha                      89.996696
_cell_angle_beta                       89.998299
_cell_angle_gamma                      89.999496
_cell_volume                           3163.128245
_space_group_name_H-M_alt              'P 1'
_space_group_IT_number                 1

loop_
_space_group_symop_operation_xyz
   'x, y, z'

loop_
   _atom_site_label
   _atom_site_occupancy
   _atom_site_fract_x
   _atom_site_fract_y
   _atom_site_fract_z
   _atom_site_adp_type
   _atom_site_U_iso_or_equiv
   _atom_site_type_symbol
   C1         1.0     0.054595     0.052220     0.047723    Uiso  ? C
   C2         1.0     0.154866     0.107428     0.047094    Uiso  ? C
   C3         1.0     0.154232     0.218481     0.046212    Uiso  ? C
   C4         1.0     0.054093     0.274159     0.046706    Uiso  ? C
   C5         1.0     0.255541     0.052243     0.047934    Uiso  ? C
   C6         1.0     0.355806     0.108299     0.050704    Uiso  ? C
   C7         1.0     0.354832     0.220543     0.049751    Uiso  ? C
   C8         1.0     0.253833     0.274171     0.045891    Uiso  ? C
   C9         1.0     0.455765     0.052031     0.054848    Uiso  ? C
   C10        1.0     0.554743     0.110490     0.058912    Uiso  ? C
   C11        1.0     0.554505     0.224350     0.059028    Uiso  ? C
   C12        1.0     0.453224     0.280725     0.053529    Uiso  ? C
   C13        1.0     0.654026     0.050532     0.060872    Uiso  ? C
   C14        1.0     0.753659     0.107797     0.058032    Uiso  ? C
   C15        1.0     0.754571     0.219843     0.058447    Uiso  ? C
   C16        1.0     0.656203     0.280152     0.061911    Uiso  ? C
   C17        1.0     0.853796     0.052261     0.053805    Uiso  ? C
   C18        1.0     0.954167     0.107384     0.050400    Uiso  ? C
   C19        1.0     0.954512     0.218436     0.050252    Uiso  ? C
   C20        1.0     0.854891     0.274255     0.054270    Uiso  ? C
   C21        1.0     0.053611     0.385468     0.044697    Uiso  ? C
   C22        1.0     0.152574     0.441029     0.041691    Uiso  ? C
   C23        1.0     0.151928     0.551987     0.040440    Uiso  ? C
   C24        1.0     0.052269     0.607980     0.041645    Uiso  ? C
   C25        1.0     0.252311     0.385185     0.043057    Uiso  ? C
   C26        1.0     0.351484     0.439771     0.044754    Uiso  ? C
   C27        1.0     0.351656     0.552644     0.043870    Uiso  ? C
   C28        1.0     0.251594     0.607473     0.041063    Uiso  ? C
   C29        1.0     0.757292     0.441537     0.061111    Uiso  ? C
   C30        1.0     0.855943     0.385393     0.053932    Uiso  ? C
   C31        1.0     0.953985     0.441696     0.047527    Uiso  ? C
   C32        1.0     0.952089     0.552956     0.045720    Uiso  ? C
   C33        1.0     0.850871     0.608021     0.051647    Uiso  ? C
   C34        1.0     0.053734     0.719102     0.041732    Uiso  ? C
   C35        1.0     0.153406     0.774675     0.041807    Uiso  ? C
   C36        1.0     0.154815     0.885795     0.044312    Uiso  ? C
   C37        1.0     0.054785     0.941418     0.046208    Uiso  ? C
   C38        1.0     0.252884     0.718470     0.042190    Uiso  ? C
   C39        1.0     0.353344     0.771836     0.047164    Uiso  ? C
   C40        1.0     0.355352     0.883850     0.049487    Uiso  ? C
   C41        1.0     0.255415     0.940551     0.046773    Uiso  ? C
   C42        1.0     0.451471     0.711727     0.053506    Uiso  ? C
   C43        1.0     0.553655     0.878583     0.062758    Uiso  ? C
   C44        1.0     0.455587     0.939035     0.055138    Uiso  ? C
   C45        1.0     0.756355     0.882557     0.060265    Uiso  ? C
   C46        1.0     0.654186     0.937395     0.063404    Uiso  ? C
   C47        1.0     0.855015     0.721485     0.051776    Uiso  ? C
   C48        1.0     0.954425     0.775340     0.045554    Uiso  ? C
   C49        1.0     0.954776     0.886235     0.047954    Uiso  ? C
   C50        1.0     0.854523     0.940745     0.053252    Uiso  ? C
   C51        1.0     0.751839     0.553159     0.061843    Uiso  ? C
   C52        1.0     0.549553     0.766413     0.067872    Uiso  ? C
   N1         1.0     0.448339     0.388689     0.051199    Uiso  ? N
   N2         1.0     0.448552     0.602819     0.049134    Uiso  ? N
   N3         1.0     0.661327     0.386817     0.065560    Uiso  ? N
   N4         1.0     0.760968     0.775367     0.062964    Uiso  ? N
   Fe1        1.0     0.663079     0.682702     0.109810    Uiso  ? Fe
   Ni1        1.0     0.557366     0.491955     0.066506    Uiso  ? Ni
   O1         1.0     0.577639     0.581742     0.155493    Uiso  ? O
   O2         1.0     0.748469     0.706990     0.184911    Uiso  ? O
   H1         1.0     0.724711     0.657683     0.219150    Uiso  ? H
   H2         1.0     0.507524     0.608376     0.170354    Uiso  ? H
