
#======================================================================
# CRYSTAL DATA
#----------------------------------------------------------------------
data_VESTA_phase_1

_chemical_name_common                  'CONTCAR\(2)\(3)                       '
_cell_length_a                         12.331300
_cell_length_b                         12.829200
_cell_length_c                         19.994400
_cell_angle_alpha                      89.996696
_cell_angle_beta                       89.998299
_cell_angle_gamma                      89.999496
_cell_volume                           3163.128245
_space_group_name_H-M_alt              'P 1'
_space_group_IT_number                 1

loop_
_space_group_symop_operation_xyz
   'x, y, z'

loop_
   _atom_site_label
   _atom_site_occupancy
   _atom_site_fract_x
   _atom_site_fract_y
   _atom_site_fract_z
   _atom_site_adp_type
   _atom_site_U_iso_or_equiv
   _atom_site_type_symbol
   C1         1.0     0.057149     0.055626     0.050554    Uiso  ? C
   C2         1.0     0.157423     0.110741     0.050313    Uiso  ? C
   C3         1.0     0.156728     0.221671     0.049816    Uiso  ? C
   C4         1.0     0.056637     0.277272     0.049266    Uiso  ? C
   C5         1.0     0.258128     0.055548     0.051226    Uiso  ? C
   C6         1.0     0.358394     0.111360     0.053830    Uiso  ? C
   C7         1.0     0.357222     0.223390     0.053904    Uiso  ? C
   C8         1.0     0.256333     0.277254     0.050734    Uiso  ? C
   C9         1.0     0.458678     0.055347     0.056694    Uiso  ? C
   C10        1.0     0.557785     0.113665     0.059495    Uiso  ? C
   C11        1.0     0.557506     0.227888     0.059955    Uiso  ? C
   C12        1.0     0.455461     0.283556     0.057481    Uiso  ? C
   C13        1.0     0.656931     0.053619     0.060169    Uiso  ? C
   C14        1.0     0.756217     0.111026     0.057703    Uiso  ? C
   C15        1.0     0.757034     0.223516     0.057075    Uiso  ? C
   C16        1.0     0.659014     0.284263     0.060031    Uiso  ? C
   C17        1.0     0.856199     0.054982     0.054990    Uiso  ? C
   C18        1.0     0.956507     0.110561     0.052105    Uiso  ? C
   C19        1.0     0.956799     0.221847     0.051274    Uiso  ? C
   C20        1.0     0.857211     0.278176     0.053398    Uiso  ? C
   C21        1.0     0.056618     0.388536     0.047854    Uiso  ? C
   C22        1.0     0.155554     0.444139     0.046935    Uiso  ? C
   C23        1.0     0.155721     0.555024     0.046098    Uiso  ? C
   C24        1.0     0.056814     0.611308     0.046486    Uiso  ? C
   C25        1.0     0.254922     0.388289     0.049084    Uiso  ? C
   C26        1.0     0.353869     0.442734     0.051882    Uiso  ? C
   C27        1.0     0.354544     0.555727     0.050859    Uiso  ? C
   C28        1.0     0.255012     0.610594     0.047246    Uiso  ? C
   C29        1.0     0.759603     0.446572     0.057681    Uiso  ? C
   C30        1.0     0.858394     0.389695     0.052660    Uiso  ? C
   C31        1.0     0.957420     0.445077     0.049108    Uiso  ? C
   C32        1.0     0.957208     0.556121     0.048628    Uiso  ? C
   C33        1.0     0.857070     0.611637     0.052939    Uiso  ? C
   C34        1.0     0.057586     0.722305     0.046945    Uiso  ? C
   C35        1.0     0.156563     0.778006     0.046881    Uiso  ? C
   C36        1.0     0.157687     0.889200     0.048397    Uiso  ? C
   C37        1.0     0.057582     0.944843     0.049805    Uiso  ? C
   C38        1.0     0.255637     0.721675     0.047370    Uiso  ? C
   C39        1.0     0.355515     0.775522     0.050337    Uiso  ? C
   C40        1.0     0.358038     0.887460     0.051848    Uiso  ? C
   C41        1.0     0.258064     0.944009     0.050097    Uiso  ? C
   C42        1.0     0.453129     0.715673     0.054801    Uiso  ? C
   C43        1.0     0.556989     0.881691     0.060580    Uiso  ? C
   C44        1.0     0.458481     0.942325     0.056114    Uiso  ? C
   C45        1.0     0.758546     0.883905     0.060449    Uiso  ? C
   C46        1.0     0.657190     0.939811     0.061735    Uiso  ? C
   C47        1.0     0.859766     0.724208     0.054131    Uiso  ? C
   C48        1.0     0.958265     0.778609     0.049886    Uiso  ? C
   C49        1.0     0.957880     0.889519     0.051563    Uiso  ? C
   C50        1.0     0.856956     0.943048     0.055487    Uiso  ? C
   C51        1.0     0.756848     0.559192     0.059465    Uiso  ? C
   C52        1.0     0.552944     0.769539     0.062589    Uiso  ? C
   N1         1.0     0.450072     0.390999     0.057405    Uiso  ? N
   N2         1.0     0.451012     0.607067     0.054921    Uiso  ? N
   N3         1.0     0.663998     0.391633     0.061233    Uiso  ? N
   N4         1.0     0.762876     0.775363     0.062467    Uiso  ? N
   Fe1        1.0     0.658229     0.673286     0.093154    Uiso  ? Fe
   Ni1        1.0     0.558405     0.498599     0.073632    Uiso  ? Ni
   O1         1.0     0.574898     0.526086     0.168869    Uiso  ? O
   O2         1.0     0.623046     0.623583     0.171552    Uiso  ? O
