
#======================================================================
# CRYSTAL DATA
#----------------------------------------------------------------------
data_VESTA_phase_1

_chemical_name_common                  '1h\(2)                                '
_cell_length_a                         12.331300
_cell_length_b                         12.829200
_cell_length_c                         19.994400
_cell_angle_alpha                      89.996696
_cell_angle_beta                       89.998299
_cell_angle_gamma                      89.999496
_cell_volume                           3163.128245
_space_group_name_H-M_alt              'P 1'
_space_group_IT_number                 1

loop_
_space_group_symop_operation_xyz
   'x, y, z'

loop_
   _atom_site_label
   _atom_site_occupancy
   _atom_site_fract_x
   _atom_site_fract_y
   _atom_site_fract_z
   _atom_site_adp_type
   _atom_site_U_iso_or_equiv
   _atom_site_type_symbol
   C1         1.0     0.056297     0.054749     0.052619    Uiso  ? C
   C2         1.0     0.156542     0.110242     0.051731    Uiso  ? C
   C3         1.0     0.156216     0.221111     0.051309    Uiso  ? C
   C4         1.0     0.056207     0.276420     0.051774    Uiso  ? C
   C5         1.0     0.257084     0.055432     0.052172    Uiso  ? C
   C6         1.0     0.357308     0.111547     0.054156    Uiso  ? C
   C7         1.0     0.356561     0.223312     0.053901    Uiso  ? C
   C8         1.0     0.255731     0.276900     0.051569    Uiso  ? C
   C9         1.0     0.457461     0.055799     0.056811    Uiso  ? C
   C10        1.0     0.556969     0.113650     0.059758    Uiso  ? C
   C11        1.0     0.556903     0.227839     0.059975    Uiso  ? C
   C12        1.0     0.454997     0.283513     0.056389    Uiso  ? C
   C13        1.0     0.655974     0.053170     0.061496    Uiso  ? C
   C14        1.0     0.755338     0.110710     0.060400    Uiso  ? C
   C15        1.0     0.756323     0.223087     0.060489    Uiso  ? C
   C16        1.0     0.658270     0.284479     0.062423    Uiso  ? C
   C17        1.0     0.855244     0.054233     0.057955    Uiso  ? C
   C18        1.0     0.955789     0.109421     0.054823    Uiso  ? C
   C19        1.0     0.956558     0.220550     0.054406    Uiso  ? C
   C20        1.0     0.857361     0.276607     0.057530    Uiso  ? C
   C21        1.0     0.056621     0.387590     0.050804    Uiso  ? C
   C22        1.0     0.155380     0.443576     0.049275    Uiso  ? C
   C23        1.0     0.155642     0.554430     0.048419    Uiso  ? C
   C24        1.0     0.056833     0.610649     0.049577    Uiso  ? C
   C25        1.0     0.254575     0.387963     0.050530    Uiso  ? C
   C26        1.0     0.353645     0.442384     0.051939    Uiso  ? C
   C27        1.0     0.354112     0.555195     0.051499    Uiso  ? C
   C28        1.0     0.254643     0.610178     0.048895    Uiso  ? C
   C29        1.0     0.761683     0.444266     0.063608    Uiso  ? C
   C30        1.0     0.859470     0.387545     0.057755    Uiso  ? C
   C31        1.0     0.957826     0.443798     0.053417    Uiso  ? C
   C32        1.0     0.957765     0.555094     0.053157    Uiso  ? C
   C33        1.0     0.858403     0.610189     0.059134    Uiso  ? C
   C34        1.0     0.056565     0.721559     0.049792    Uiso  ? C
   C35        1.0     0.155278     0.777560     0.049008    Uiso  ? C
   C36        1.0     0.156509     0.888687     0.050256    Uiso  ? C
   C37        1.0     0.056447     0.944116     0.052074    Uiso  ? C
   C38        1.0     0.254025     0.721428     0.049038    Uiso  ? C
   C39        1.0     0.353218     0.775914     0.051294    Uiso  ? C
   C40        1.0     0.356396     0.887717     0.052612    Uiso  ? C
   C41        1.0     0.256624     0.943920     0.051266    Uiso  ? C
   C42        1.0     0.450834     0.717004     0.054995    Uiso  ? C
   C43        1.0     0.554713     0.882956     0.060397    Uiso  ? C
   C44        1.0     0.456726     0.943343     0.056367    Uiso  ? C
   C45        1.0     0.757357     0.882574     0.063153    Uiso  ? C
   C46        1.0     0.656003     0.939548     0.062728    Uiso  ? C
   C47        1.0     0.859181     0.723130     0.059406    Uiso  ? C
   C48        1.0     0.957390     0.777718     0.053543    Uiso  ? C
   C49        1.0     0.956767     0.888710     0.054616    Uiso  ? C
   C50        1.0     0.855806     0.942182     0.058579    Uiso  ? C
   C51        1.0     0.759690     0.555335     0.066739    Uiso  ? C
   C52        1.0     0.549452     0.771968     0.061594    Uiso  ? C
   N1         1.0     0.450339     0.390891     0.054831    Uiso  ? N
   N2         1.0     0.450837     0.607152     0.055193    Uiso  ? N
   N3         1.0     0.663799     0.392310     0.065497    Uiso  ? N
   N4         1.0     0.762083     0.774135     0.066500    Uiso  ? N
   Fe1        1.0     0.647905     0.661052     0.078734    Uiso  ? Fe
   Ni1        1.0     0.559538     0.500778     0.061190    Uiso  ? Ni
