
#======================================================================
# CRYSTAL DATA
#----------------------------------------------------------------------
data_VESTA_phase_1

_chemical_name_common                  'CONTCAR\(3)                           '
_cell_length_a                         12.331300
_cell_length_b                         12.829200
_cell_length_c                         19.994400
_cell_angle_alpha                      89.996696
_cell_angle_beta                       89.998299
_cell_angle_gamma                      89.999496
_cell_volume                           3163.128245
_space_group_name_H-M_alt              'P 1'
_space_group_IT_number                 1

loop_
_space_group_symop_operation_xyz
   'x, y, z'

loop_
   _atom_site_label
   _atom_site_occupancy
   _atom_site_fract_x
   _atom_site_fract_y
   _atom_site_fract_z
   _atom_site_adp_type
   _atom_site_U_iso_or_equiv
   _atom_site_type_symbol
   C1         1.0     0.055963     0.054209     0.051197    Uiso  ? C
   C2         1.0     0.156351     0.109621     0.051805    Uiso  ? C
   C3         1.0     0.156105     0.220258     0.049988    Uiso  ? C
   C4         1.0     0.056329     0.275896     0.048040    Uiso  ? C
   C5         1.0     0.257158     0.055281     0.054829    Uiso  ? C
   C6         1.0     0.357300     0.111545     0.057802    Uiso  ? C
   C7         1.0     0.356727     0.223348     0.056672    Uiso  ? C
   C8         1.0     0.255593     0.276047     0.051619    Uiso  ? C
   C9         1.0     0.457603     0.056412     0.061809    Uiso  ? C
   C10        1.0     0.557369     0.114691     0.063118    Uiso  ? C
   C11        1.0     0.557724     0.229127     0.063503    Uiso  ? C
   C12        1.0     0.454973     0.283908     0.060715    Uiso  ? C
   C13        1.0     0.656367     0.054156     0.061839    Uiso  ? C
   C14        1.0     0.755550     0.111202     0.057847    Uiso  ? C
   C15        1.0     0.756532     0.223749     0.057746    Uiso  ? C
   C16        1.0     0.659757     0.285844     0.063087    Uiso  ? C
   C17        1.0     0.854994     0.054007     0.054337    Uiso  ? C
   C18        1.0     0.955673     0.109208     0.051773    Uiso  ? C
   C19        1.0     0.956456     0.220623     0.050384    Uiso  ? C
   C20        1.0     0.857298     0.277266     0.052702    Uiso  ? C
   C21        1.0     0.056922     0.387088     0.045746    Uiso  ? C
   C22        1.0     0.155458     0.443326     0.046173    Uiso  ? C
   C23        1.0     0.155600     0.554373     0.046241    Uiso  ? C
   C24        1.0     0.057002     0.610640     0.044905    Uiso  ? C
   C25        1.0     0.254145     0.386673     0.049749    Uiso  ? C
   C26        1.0     0.351986     0.441227     0.055275    Uiso  ? C
   C27        1.0     0.352495     0.553377     0.057877    Uiso  ? C
   C28        1.0     0.254411     0.609939     0.051514    Uiso  ? C
   C29        1.0     0.762302     0.446293     0.056671    Uiso  ? C
   C30        1.0     0.859519     0.388279     0.050423    Uiso  ? C
   C31        1.0     0.958350     0.443370     0.045980    Uiso  ? C
   C32        1.0     0.958336     0.554493     0.045303    Uiso  ? C
   C33        1.0     0.858637     0.608088     0.048775    Uiso  ? C
   C34        1.0     0.056527     0.721430     0.046750    Uiso  ? C
   C35        1.0     0.155692     0.777371     0.049853    Uiso  ? C
   C36        1.0     0.156445     0.888304     0.051534    Uiso  ? C
   C37        1.0     0.056010     0.943288     0.050642    Uiso  ? C
   C38        1.0     0.254778     0.721249     0.053236    Uiso  ? C
   C39        1.0     0.353816     0.776226     0.059991    Uiso  ? C
   C40        1.0     0.356218     0.888034     0.059827    Uiso  ? C
   C41        1.0     0.256711     0.943822     0.055185    Uiso  ? C
   C42        1.0     0.451321     0.717751     0.069353    Uiso  ? C
   C43        1.0     0.555425     0.884758     0.068047    Uiso  ? C
   C44        1.0     0.456734     0.943932     0.063746    Uiso  ? C
   C45        1.0     0.756574     0.882635     0.057421    Uiso  ? C
   C46        1.0     0.656334     0.940549     0.063115    Uiso  ? C
   C47        1.0     0.857422     0.721178     0.049687    Uiso  ? C
   C48        1.0     0.956630     0.776471     0.048237    Uiso  ? C
   C49        1.0     0.956193     0.887817     0.050430    Uiso  ? C
   C50        1.0     0.855246     0.941769     0.053736    Uiso  ? C
   C51        1.0     0.450962     0.605436     0.069464    Uiso  ? C
   C52        1.0     0.550717     0.774371     0.074655    Uiso  ? C
   N1         1.0     0.449164     0.391308     0.060991    Uiso  ? N
   N2         1.0     0.666041     0.394604     0.066524    Uiso  ? N
   N3         1.0     0.763104     0.553904     0.054608    Uiso  ? N
   N4         1.0     0.759453     0.773467     0.054997    Uiso  ? N
   Fe1        1.0     0.650805     0.666536     0.071449    Uiso  ? Fe
   Ni1        1.0     0.555805     0.499476     0.078486    Uiso  ? Ni
   H1         1.0     0.606379     0.577501     0.128693    Uiso  ? H
