
#======================================================================
# CRYSTAL DATA
#----------------------------------------------------------------------
data_VESTA_phase_1

_chemical_name_common                  'CONTCAR\(3)                           '
_cell_length_a                         12.331300
_cell_length_b                         12.829200
_cell_length_c                         19.994400
_cell_angle_alpha                      89.996696
_cell_angle_beta                       89.998299
_cell_angle_gamma                      89.999496
_cell_volume                           3163.128245
_space_group_name_H-M_alt              'P 1'
_space_group_IT_number                 1

loop_
_space_group_symop_operation_xyz
   'x, y, z'

loop_
   _atom_site_label
   _atom_site_occupancy
   _atom_site_fract_x
   _atom_site_fract_y
   _atom_site_fract_z
   _atom_site_adp_type
   _atom_site_U_iso_or_equiv
   _atom_site_type_symbol
   C1         1.0     0.055801     0.054598     0.048724    Uiso  ? C
   C2         1.0     0.156226     0.109968     0.049390    Uiso  ? C
   C3         1.0     0.155816     0.220638     0.047407    Uiso  ? C
   C4         1.0     0.055874     0.276436     0.045598    Uiso  ? C
   C5         1.0     0.257200     0.055575     0.052794    Uiso  ? C
   C6         1.0     0.357272     0.112034     0.056415    Uiso  ? C
   C7         1.0     0.356664     0.224075     0.054928    Uiso  ? C
   C8         1.0     0.255337     0.276465     0.048996    Uiso  ? C
   C9         1.0     0.457433     0.056715     0.061446    Uiso  ? C
   C10        1.0     0.557111     0.115040     0.063373    Uiso  ? C
   C11        1.0     0.557490     0.229432     0.063848    Uiso  ? C
   C12        1.0     0.454962     0.284661     0.060020    Uiso  ? C
   C13        1.0     0.656082     0.054732     0.062034    Uiso  ? C
   C14        1.0     0.755263     0.111545     0.057335    Uiso  ? C
   C15        1.0     0.756256     0.223944     0.057519    Uiso  ? C
   C16        1.0     0.659576     0.285592     0.063789    Uiso  ? C
   C17        1.0     0.854842     0.054599     0.052962    Uiso  ? C
   C18        1.0     0.955455     0.109779     0.049866    Uiso  ? C
   C19        1.0     0.956062     0.221192     0.048697    Uiso  ? C
   C20        1.0     0.856814     0.277797     0.051918    Uiso  ? C
   C21        1.0     0.056068     0.387668     0.042927    Uiso  ? C
   C22        1.0     0.154825     0.443808     0.042570    Uiso  ? C
   C23        1.0     0.154847     0.554857     0.042263    Uiso  ? C
   C24        1.0     0.056043     0.611151     0.041313    Uiso  ? C
   C25        1.0     0.253648     0.387080     0.046434    Uiso  ? C
   C26        1.0     0.351325     0.441905     0.052485    Uiso  ? C
   C27        1.0     0.351643     0.553690     0.055148    Uiso  ? C
   C28        1.0     0.253828     0.610373     0.047556    Uiso  ? C
   C29        1.0     0.760673     0.446696     0.056731    Uiso  ? C
   C30        1.0     0.858486     0.388787     0.049687    Uiso  ? C
   C31        1.0     0.957225     0.443914     0.043889    Uiso  ? C
   C32        1.0     0.956971     0.555217     0.042631    Uiso  ? C
   C33        1.0     0.856917     0.608587     0.046564    Uiso  ? C
   C34        1.0     0.056150     0.721904     0.043081    Uiso  ? C
   C35        1.0     0.155683     0.777783     0.046273    Uiso  ? C
   C36        1.0     0.156491     0.888630     0.048522    Uiso  ? C
   C37        1.0     0.055879     0.943661     0.047830    Uiso  ? C
   C38        1.0     0.254944     0.721590     0.049822    Uiso  ? C
   C39        1.0     0.354386     0.775856     0.058008    Uiso  ? C
   C40        1.0     0.356490     0.887838     0.058320    Uiso  ? C
   C41        1.0     0.256862     0.943951     0.052938    Uiso  ? C
   C42        1.0     0.452166     0.716923     0.069464    Uiso  ? C
   C43        1.0     0.555408     0.885037     0.069049    Uiso  ? C
   C44        1.0     0.456703     0.944186     0.063516    Uiso  ? C
   C45        1.0     0.756424     0.883869     0.056717    Uiso  ? C
   C46        1.0     0.656147     0.941181     0.063629    Uiso  ? C
   C47        1.0     0.856584     0.721811     0.047136    Uiso  ? C
   C48        1.0     0.956122     0.776878     0.045121    Uiso  ? C
   C49        1.0     0.955929     0.888251     0.047777    Uiso  ? C
   C50        1.0     0.855173     0.942611     0.051977    Uiso  ? C
   C51        1.0     0.449700     0.604294     0.069939    Uiso  ? C
   C52        1.0     0.550857     0.774569     0.076767    Uiso  ? C
   N1         1.0     0.448784     0.392424     0.060151    Uiso  ? N
   N2         1.0     0.665364     0.394094     0.067898    Uiso  ? N
   N3         1.0     0.761023     0.554238     0.053235    Uiso  ? N
   N4         1.0     0.759326     0.775326     0.054205    Uiso  ? N
   Fe1        1.0     0.656745     0.671226     0.079953    Uiso  ? Fe
   Ni1        1.0     0.552181     0.495767     0.084905    Uiso  ? Ni
   O1         1.0     0.617265     0.583707     0.152688    Uiso  ? O
   H1         1.0     0.555820     0.613444     0.176900    Uiso  ? H
