
#======================================================================
# CRYSTAL DATA
#----------------------------------------------------------------------
data_VESTA_phase_1

_chemical_name_common                  'CONTCAR\(3)                           '
_cell_length_a                         12.331300
_cell_length_b                         12.829200
_cell_length_c                         19.994400
_cell_angle_alpha                      89.996696
_cell_angle_beta                       89.998299
_cell_angle_gamma                      89.999496
_cell_volume                           3163.128245
_space_group_name_H-M_alt              'P 1'
_space_group_IT_number                 1

loop_
_space_group_symop_operation_xyz
   'x, y, z'

loop_
   _atom_site_label
   _atom_site_occupancy
   _atom_site_fract_x
   _atom_site_fract_y
   _atom_site_fract_z
   _atom_site_adp_type
   _atom_site_U_iso_or_equiv
   _atom_site_type_symbol
   C1         1.0     0.055925     0.054055     0.049742    Uiso  ? C
   C2         1.0     0.156367     0.109332     0.050371    Uiso  ? C
   C3         1.0     0.155948     0.220017     0.048540    Uiso  ? C
   C4         1.0     0.056049     0.275830     0.046459    Uiso  ? C
   C5         1.0     0.257313     0.054945     0.053623    Uiso  ? C
   C6         1.0     0.357416     0.111388     0.057547    Uiso  ? C
   C7         1.0     0.356722     0.223314     0.056553    Uiso  ? C
   C8         1.0     0.255422     0.275782     0.050509    Uiso  ? C
   C9         1.0     0.457611     0.056207     0.062409    Uiso  ? C
   C10        1.0     0.557322     0.114579     0.064772    Uiso  ? C
   C11        1.0     0.557627     0.229098     0.065638    Uiso  ? C
   C12        1.0     0.454864     0.283921     0.062241    Uiso  ? C
   C13        1.0     0.656374     0.054255     0.063543    Uiso  ? C
   C14        1.0     0.755474     0.111093     0.058912    Uiso  ? C
   C15        1.0     0.756386     0.223766     0.058611    Uiso  ? C
   C16        1.0     0.659760     0.285576     0.064905    Uiso  ? C
   C17        1.0     0.855027     0.054040     0.054580    Uiso  ? C
   C18        1.0     0.955575     0.109235     0.051049    Uiso  ? C
   C19        1.0     0.956177     0.220699     0.049621    Uiso  ? C
   C20        1.0     0.856948     0.277424     0.052703    Uiso  ? C
   C21        1.0     0.056368     0.387011     0.043286    Uiso  ? C
   C22        1.0     0.155057     0.443093     0.043171    Uiso  ? C
   C23        1.0     0.155262     0.554191     0.042480    Uiso  ? C
   C24        1.0     0.056470     0.610489     0.041075    Uiso  ? C
   C25        1.0     0.253769     0.386354     0.047987    Uiso  ? C
   C26        1.0     0.351322     0.441072     0.054705    Uiso  ? C
   C27        1.0     0.351720     0.552997     0.056341    Uiso  ? C
   C28        1.0     0.254065     0.609719     0.048140    Uiso  ? C
   C29        1.0     0.761031     0.446677     0.057194    Uiso  ? C
   C30        1.0     0.858700     0.388487     0.050082    Uiso  ? C
   C31        1.0     0.957530     0.443346     0.043855    Uiso  ? C
   C32        1.0     0.957694     0.554489     0.042264    Uiso  ? C
   C33        1.0     0.857660     0.608041     0.046365    Uiso  ? C
   C34        1.0     0.056390     0.721371     0.042991    Uiso  ? C
   C35        1.0     0.155893     0.777143     0.046397    Uiso  ? C
   C36        1.0     0.156627     0.888096     0.048940    Uiso  ? C
   C37        1.0     0.056035     0.943116     0.048671    Uiso  ? C
   C38        1.0     0.255200     0.720988     0.050134    Uiso  ? C
   C39        1.0     0.354567     0.775326     0.058490    Uiso  ? C
   C40        1.0     0.356676     0.887370     0.058696    Uiso  ? C
   C41        1.0     0.256968     0.943402     0.053404    Uiso  ? C
   C42        1.0     0.452314     0.716551     0.069779    Uiso  ? C
   C43        1.0     0.555579     0.884403     0.069726    Uiso  ? C
   C44        1.0     0.456807     0.943603     0.063945    Uiso  ? C
   C45        1.0     0.756759     0.882950     0.058991    Uiso  ? C
   C46        1.0     0.656509     0.940414     0.065159    Uiso  ? C
   C47        1.0     0.856869     0.721320     0.047812    Uiso  ? C
   C48        1.0     0.956312     0.776380     0.045526    Uiso  ? C
   C49        1.0     0.956103     0.887699     0.048878    Uiso  ? C
   C50        1.0     0.855385     0.941846     0.053876    Uiso  ? C
   C51        1.0     0.449402     0.604081     0.070500    Uiso  ? C
   C52        1.0     0.550631     0.774189     0.077436    Uiso  ? C
   N1         1.0     0.448455     0.391572     0.063193    Uiso  ? N
   N2         1.0     0.665514     0.394421     0.068404    Uiso  ? N
   N3         1.0     0.762464     0.554457     0.053407    Uiso  ? N
   N4         1.0     0.759401     0.773772     0.056329    Uiso  ? N
   Fe1        1.0     0.655548     0.669162     0.083083    Uiso  ? Fe
   Ni1        1.0     0.551982     0.496740     0.087288    Uiso  ? Ni
   O1         1.0     0.616144     0.585859     0.145772    Uiso  ? O
