
#======================================================================
# CRYSTAL DATA
#----------------------------------------------------------------------
data_VESTA_phase_1

_chemical_name_common                  'CONTCAR\(3)                           '
_cell_length_a                         12.331300
_cell_length_b                         12.829200
_cell_length_c                         19.994400
_cell_angle_alpha                      89.996696
_cell_angle_beta                       89.998299
_cell_angle_gamma                      89.999496
_cell_volume                           3163.128245
_space_group_name_H-M_alt              'P 1'
_space_group_IT_number                 1

loop_
_space_group_symop_operation_xyz
   'x, y, z'

loop_
   _atom_site_label
   _atom_site_occupancy
   _atom_site_fract_x
   _atom_site_fract_y
   _atom_site_fract_z
   _atom_site_adp_type
   _atom_site_U_iso_or_equiv
   _atom_site_type_symbol
   C1         1.0     0.055840     0.053213     0.050911    Uiso  ? C
   C2         1.0     0.156269     0.108630     0.051483    Uiso  ? C
   C3         1.0     0.155953     0.219342     0.049921    Uiso  ? C
   C4         1.0     0.056180     0.275016     0.048137    Uiso  ? C
   C5         1.0     0.257087     0.054339     0.054140    Uiso  ? C
   C6         1.0     0.357274     0.110603     0.057237    Uiso  ? C
   C7         1.0     0.356611     0.222459     0.056415    Uiso  ? C
   C8         1.0     0.255451     0.275120     0.051517    Uiso  ? C
   C9         1.0     0.457561     0.055469     0.061021    Uiso  ? C
   C10        1.0     0.557328     0.113761     0.062771    Uiso  ? C
   C11        1.0     0.557597     0.228246     0.063116    Uiso  ? C
   C12        1.0     0.454866     0.283049     0.060457    Uiso  ? C
   C13        1.0     0.656345     0.053233     0.061823    Uiso  ? C
   C14        1.0     0.755558     0.110186     0.058003    Uiso  ? C
   C15        1.0     0.756481     0.222788     0.057792    Uiso  ? C
   C16        1.0     0.659684     0.284898     0.062660    Uiso  ? C
   C17        1.0     0.854931     0.052943     0.054480    Uiso  ? C
   C18        1.0     0.955554     0.108212     0.051802    Uiso  ? C
   C19        1.0     0.956294     0.219684     0.050546    Uiso  ? C
   C20        1.0     0.857197     0.276390     0.052863    Uiso  ? C
   C21        1.0     0.056676     0.386259     0.045837    Uiso  ? C
   C22        1.0     0.155293     0.442469     0.045950    Uiso  ? C
   C23        1.0     0.155282     0.553509     0.045620    Uiso  ? C
   C24        1.0     0.056587     0.609742     0.044506    Uiso  ? C
   C25        1.0     0.253974     0.385756     0.049479    Uiso  ? C
   C26        1.0     0.351930     0.440380     0.054635    Uiso  ? C
   C27        1.0     0.352490     0.552550     0.056086    Uiso  ? C
   C28        1.0     0.254315     0.609020     0.049984    Uiso  ? C
   C29        1.0     0.761993     0.445458     0.056437    Uiso  ? C
   C30        1.0     0.859327     0.387506     0.050604    Uiso  ? C
   C31        1.0     0.958132     0.442544     0.046146    Uiso  ? C
   C32        1.0     0.957758     0.553688     0.045261    Uiso  ? C
   C33        1.0     0.857871     0.607215     0.048797    Uiso  ? C
   C34        1.0     0.056220     0.720498     0.046098    Uiso  ? C
   C35        1.0     0.155588     0.776377     0.048558    Uiso  ? C
   C36        1.0     0.156365     0.887356     0.050443    Uiso  ? C
   C37        1.0     0.055924     0.942294     0.050142    Uiso  ? C
   C38        1.0     0.254800     0.720318     0.051186    Uiso  ? C
   C39        1.0     0.354110     0.775224     0.057219    Uiso  ? C
   C40        1.0     0.356306     0.887062     0.057849    Uiso  ? C
   C41        1.0     0.256742     0.942832     0.053938    Uiso  ? C
   C42        1.0     0.451637     0.716694     0.066233    Uiso  ? C
   C43        1.0     0.555517     0.883981     0.066904    Uiso  ? C
   C44        1.0     0.456808     0.942878     0.062247    Uiso  ? C
   C45        1.0     0.756564     0.881379     0.057780    Uiso  ? C
   C46        1.0     0.656342     0.939554     0.063087    Uiso  ? C
   C47        1.0     0.856852     0.720280     0.049710    Uiso  ? C
   C48        1.0     0.956238     0.775455     0.047965    Uiso  ? C
   C49        1.0     0.956047     0.886760     0.050243    Uiso  ? C
   C50        1.0     0.855198     0.940649     0.053850    Uiso  ? C
   C51        1.0     0.451530     0.604513     0.066526    Uiso  ? C
   C52        1.0     0.551107     0.773120     0.072261    Uiso  ? C
   N1         1.0     0.449074     0.390526     0.060801    Uiso  ? N
   N2         1.0     0.665878     0.393631     0.065451    Uiso  ? N
   N3         1.0     0.762026     0.553418     0.054563    Uiso  ? N
   N4         1.0     0.759055     0.772179     0.055516    Uiso  ? N
   Fe1        1.0     0.649505     0.666264     0.072314    Uiso  ? Fe
   Ni1        1.0     0.556227     0.499211     0.075645    Uiso  ? Ni
   H1         1.0     0.648404     0.685797     0.144976    Uiso  ? H
   H2         1.0     0.603386     0.584112     0.127013    Uiso  ? H
