
#======================================================================
# CRYSTAL DATA
#----------------------------------------------------------------------
data_VESTA_phase_1

_chemical_name_common                  'CONTCAR\(3)                           '
_cell_length_a                         12.331300
_cell_length_b                         12.829200
_cell_length_c                         19.994400
_cell_angle_alpha                      89.996696
_cell_angle_beta                       89.998299
_cell_angle_gamma                      89.999496
_cell_volume                           3163.128245
_space_group_name_H-M_alt              'P 1'
_space_group_IT_number                 1

loop_
_space_group_symop_operation_xyz
   'x, y, z'

loop_
   _atom_site_label
   _atom_site_occupancy
   _atom_site_fract_x
   _atom_site_fract_y
   _atom_site_fract_z
   _atom_site_adp_type
   _atom_site_U_iso_or_equiv
   _atom_site_type_symbol
   C1         1.0     0.055443     0.051882     0.045012    Uiso  ? C
   C2         1.0     0.155917     0.106854     0.044823    Uiso  ? C
   C3         1.0     0.155143     0.217651     0.042659    Uiso  ? C
   C4         1.0     0.055169     0.273717     0.042417    Uiso  ? C
   C5         1.0     0.256976     0.052230     0.047686    Uiso  ? C
   C6         1.0     0.357162     0.108669     0.051508    Uiso  ? C
   C7         1.0     0.356305     0.220862     0.049184    Uiso  ? C
   C8         1.0     0.254748     0.273232     0.042854    Uiso  ? C
   C9         1.0     0.457167     0.053276     0.057650    Uiso  ? C
   C10        1.0     0.556494     0.112147     0.061611    Uiso  ? C
   C11        1.0     0.556607     0.226562     0.062050    Uiso  ? C
   C12        1.0     0.454431     0.281525     0.054489    Uiso  ? C
   C13        1.0     0.655719     0.051872     0.062156    Uiso  ? C
   C14        1.0     0.755059     0.108725     0.057715    Uiso  ? C
   C15        1.0     0.755910     0.221272     0.058871    Uiso  ? C
   C16        1.0     0.659103     0.282826     0.065420    Uiso  ? C
   C17        1.0     0.854770     0.052484     0.051860    Uiso  ? C
   C18        1.0     0.955201     0.107409     0.047682    Uiso  ? C
   C19        1.0     0.955462     0.218706     0.047218    Uiso  ? C
   C20        1.0     0.856229     0.275229     0.052799    Uiso  ? C
   C21        1.0     0.054768     0.385013     0.039468    Uiso  ? C
   C22        1.0     0.153506     0.440800     0.036659    Uiso  ? C
   C23        1.0     0.153139     0.552013     0.035559    Uiso  ? C
   C24        1.0     0.054220     0.608300     0.036428    Uiso  ? C
   C25        1.0     0.252600     0.383744     0.039437    Uiso  ? C
   C26        1.0     0.350456     0.438508     0.044067    Uiso  ? C
   C27        1.0     0.350133     0.550450     0.046893    Uiso  ? C
   C28        1.0     0.252519     0.607453     0.039629    Uiso  ? C
   C29        1.0     0.760144     0.444258     0.062352    Uiso  ? C
   C30        1.0     0.857386     0.386502     0.051856    Uiso  ? C
   C31        1.0     0.955824     0.441486     0.043152    Uiso  ? C
   C32        1.0     0.954994     0.552605     0.041317    Uiso  ? C
   C33        1.0     0.854788     0.605982     0.049529    Uiso  ? C
   C34        1.0     0.055376     0.719259     0.037719    Uiso  ? C
   C35        1.0     0.155318     0.774732     0.040015    Uiso  ? C
   C36        1.0     0.156208     0.885678     0.043043    Uiso  ? C
   C37        1.0     0.055710     0.940902     0.043514    Uiso  ? C
   C38        1.0     0.254856     0.718441     0.042892    Uiso  ? C
   C39        1.0     0.355021     0.771949     0.052375    Uiso  ? C
   C40        1.0     0.356655     0.884200     0.053209    Uiso  ? C
   C41        1.0     0.256922     0.940597     0.047541    Uiso  ? C
   C42        1.0     0.452574     0.712371     0.064788    Uiso  ? C
   C43        1.0     0.555270     0.880805     0.067720    Uiso  ? C
   C44        1.0     0.456754     0.940182     0.059602    Uiso  ? C
   C45        1.0     0.757319     0.882694     0.057753    Uiso  ? C
   C46        1.0     0.656020     0.938357     0.064372    Uiso  ? C
   C47        1.0     0.856000     0.719956     0.047904    Uiso  ? C
   C48        1.0     0.955558     0.774477     0.041586    Uiso  ? C
   C49        1.0     0.955613     0.885747     0.044379    Uiso  ? C
   C50        1.0     0.855410     0.940715     0.050374    Uiso  ? C
   C51        1.0     0.447423     0.599837     0.063793    Uiso  ? C
   C52        1.0     0.551086     0.769550     0.076214    Uiso  ? C
   N1         1.0     0.448282     0.389589     0.051641    Uiso  ? N
   N2         1.0     0.664701     0.390709     0.072121    Uiso  ? N
   N3         1.0     0.760334     0.552618     0.061958    Uiso  ? N
   N4         1.0     0.761296     0.774642     0.058620    Uiso  ? N
   Fe1        1.0     0.668701     0.685160     0.105863    Uiso  ? Fe
   Ni1        1.0     0.547030     0.491385     0.082673    Uiso  ? Ni
   O1         1.0     0.595745     0.575116     0.154638    Uiso  ? O
   O2         1.0     0.739074     0.724967     0.183503    Uiso  ? O
   H1         1.0     0.719009     0.675463     0.218501    Uiso  ? H
   H2         1.0     0.529454     0.601680     0.175208    Uiso  ? H
