
#======================================================================
# CRYSTAL DATA
#----------------------------------------------------------------------
data_VESTA_phase_1

_chemical_name_common                  'CONTCAR\(3)                           '
_cell_length_a                         12.331300
_cell_length_b                         12.829200
_cell_length_c                         19.994400
_cell_angle_alpha                      89.996696
_cell_angle_beta                       89.998299
_cell_angle_gamma                      89.999496
_cell_volume                           3163.128245
_space_group_name_H-M_alt              'P 1'
_space_group_IT_number                 1

loop_
_space_group_symop_operation_xyz
   'x, y, z'

loop_
   _atom_site_label
   _atom_site_occupancy
   _atom_site_fract_x
   _atom_site_fract_y
   _atom_site_fract_z
   _atom_site_adp_type
   _atom_site_U_iso_or_equiv
   _atom_site_type_symbol
   C1         1.0     0.055550     0.053954     0.049217    Uiso  ? C
   C2         1.0     0.155959     0.109569     0.049426    Uiso  ? C
   C3         1.0     0.155911     0.220352     0.047893    Uiso  ? C
   C4         1.0     0.056013     0.275902     0.046684    Uiso  ? C
   C5         1.0     0.256804     0.055322     0.051909    Uiso  ? C
   C6         1.0     0.356981     0.111930     0.054832    Uiso  ? C
   C7         1.0     0.356730     0.223853     0.053845    Uiso  ? C
   C8         1.0     0.255479     0.276389     0.049201    Uiso  ? C
   C9         1.0     0.457023     0.056704     0.058804    Uiso  ? C
   C10        1.0     0.556989     0.114421     0.060938    Uiso  ? C
   C11        1.0     0.557537     0.228601     0.061593    Uiso  ? C
   C12        1.0     0.455391     0.284073     0.057900    Uiso  ? C
   C13        1.0     0.656034     0.054267     0.060332    Uiso  ? C
   C14        1.0     0.755388     0.110609     0.056777    Uiso  ? C
   C15        1.0     0.756593     0.223013     0.056827    Uiso  ? C
   C16        1.0     0.659811     0.284257     0.062234    Uiso  ? C
   C17        1.0     0.854709     0.053458     0.053276    Uiso  ? C
   C18        1.0     0.955302     0.108940     0.050360    Uiso  ? C
   C19        1.0     0.956187     0.220427     0.049277    Uiso  ? C
   C20        1.0     0.857026     0.276986     0.051975    Uiso  ? C
   C21        1.0     0.056388     0.387168     0.044593    Uiso  ? C
   C22        1.0     0.155117     0.443402     0.044658    Uiso  ? C
   C23        1.0     0.155218     0.554443     0.044465    Uiso  ? C
   C24        1.0     0.056054     0.610380     0.043341    Uiso  ? C
   C25        1.0     0.254170     0.387053     0.047603    Uiso  ? C
   C26        1.0     0.352380     0.441927     0.052285    Uiso  ? C
   C27        1.0     0.353550     0.553909     0.055344    Uiso  ? C
   C28        1.0     0.254527     0.609982     0.048759    Uiso  ? C
   C29        1.0     0.760823     0.445843     0.056212    Uiso  ? C
   C30        1.0     0.858666     0.388054     0.049814    Uiso  ? C
   C31        1.0     0.957444     0.443223     0.044982    Uiso  ? C
   C32        1.0     0.956869     0.554349     0.044013    Uiso  ? C
   C33        1.0     0.856405     0.607423     0.047415    Uiso  ? C
   C34        1.0     0.055639     0.721106     0.044703    Uiso  ? C
   C35        1.0     0.155004     0.777105     0.047208    Uiso  ? C
   C36        1.0     0.155893     0.888105     0.048754    Uiso  ? C
   C37        1.0     0.055362     0.942908     0.048576    Uiso  ? C
   C38        1.0     0.254421     0.721164     0.050064    Uiso  ? C
   C39        1.0     0.353682     0.776029     0.055914    Uiso  ? C
   C40        1.0     0.355935     0.887992     0.055715    Uiso  ? C
   C41        1.0     0.256206     0.943771     0.051828    Uiso  ? C
   C42        1.0     0.451717     0.717807     0.065854    Uiso  ? C
   C43        1.0     0.554698     0.885811     0.064565    Uiso  ? C
   C44        1.0     0.455958     0.944450     0.059980    Uiso  ? C
   C45        1.0     0.755719     0.882409     0.057329    Uiso  ? C
   C46        1.0     0.655970     0.940723     0.061593    Uiso  ? C
   C47        1.0     0.855944     0.720403     0.048551    Uiso  ? C
   C48        1.0     0.955302     0.775797     0.046553    Uiso  ? C
   C49        1.0     0.955470     0.887203     0.049046    Uiso  ? C
   C50        1.0     0.854708     0.941149     0.053036    Uiso  ? C
   C51        1.0     0.452302     0.605296     0.068662    Uiso  ? C
   C52        1.0     0.549600     0.776083     0.070035    Uiso  ? C
   N1         1.0     0.449860     0.391961     0.057285    Uiso  ? N
   N2         1.0     0.665803     0.392238     0.066564    Uiso  ? N
   N3         1.0     0.760213     0.553657     0.052797    Uiso  ? N
   N4         1.0     0.757844     0.772697     0.055480    Uiso  ? N
   Fe1        1.0     0.649844     0.671231     0.074659    Uiso  ? Fe
   Ni1        1.0     0.555705     0.493071     0.084479    Uiso  ? Ni
   O1         1.0     0.617309     0.544669     0.162954    Uiso  ? O
   O2         1.0     0.651147     0.648951     0.162396    Uiso  ? O
