
#======================================================================
# CRYSTAL DATA
#----------------------------------------------------------------------
data_VESTA_phase_1

_chemical_name_common                  '1h\(2)                                '
_cell_length_a                         12.331300
_cell_length_b                         12.829200
_cell_length_c                         19.994400
_cell_angle_alpha                      89.996696
_cell_angle_beta                       89.998299
_cell_angle_gamma                      89.999496
_cell_volume                           3163.128245
_space_group_name_H-M_alt              'P 1'
_space_group_IT_number                 1

loop_
_space_group_symop_operation_xyz
   'x, y, z'

loop_
   _atom_site_label
   _atom_site_occupancy
   _atom_site_fract_x
   _atom_site_fract_y
   _atom_site_fract_z
   _atom_site_adp_type
   _atom_site_U_iso_or_equiv
   _atom_site_type_symbol
   C1         1.0     0.055768     0.054057     0.053732    Uiso  ? C
   C2         1.0     0.156032     0.109748     0.054184    Uiso  ? C
   C3         1.0     0.155993     0.220414     0.053414    Uiso  ? C
   C4         1.0     0.056420     0.275932     0.052378    Uiso  ? C
   C5         1.0     0.256658     0.055455     0.055793    Uiso  ? C
   C6         1.0     0.356968     0.111515     0.057377    Uiso  ? C
   C7         1.0     0.356458     0.223118     0.057120    Uiso  ? C
   C8         1.0     0.255552     0.276257     0.054591    Uiso  ? C
   C9         1.0     0.457339     0.056580     0.059132    Uiso  ? C
   C10        1.0     0.557310     0.114537     0.059406    Uiso  ? C
   C11        1.0     0.557692     0.228796     0.059579    Uiso  ? C
   C12        1.0     0.454754     0.283522     0.059301    Uiso  ? C
   C13        1.0     0.656291     0.053987     0.058418    Uiso  ? C
   C14        1.0     0.755581     0.110838     0.056552    Uiso  ? C
   C15        1.0     0.756693     0.223366     0.056394    Uiso  ? C
   C16        1.0     0.659763     0.285267     0.058520    Uiso  ? C
   C17        1.0     0.854909     0.053554     0.055011    Uiso  ? C
   C18        1.0     0.955579     0.108903     0.053854    Uiso  ? C
   C19        1.0     0.956611     0.220366     0.053233    Uiso  ? C
   C20        1.0     0.857615     0.276942     0.054153    Uiso  ? C
   C21        1.0     0.057340     0.387212     0.051546    Uiso  ? C
   C22        1.0     0.155863     0.443475     0.051955    Uiso  ? C
   C23        1.0     0.155992     0.554458     0.052194    Uiso  ? C
   C24        1.0     0.057023     0.610506     0.051497    Uiso  ? C
   C25        1.0     0.254573     0.387005     0.053832    Uiso  ? C
   C26        1.0     0.353111     0.441368     0.057104    Uiso  ? C
   C27        1.0     0.354593     0.554129     0.057758    Uiso  ? C
   C28        1.0     0.255192     0.609965     0.054752    Uiso  ? C
   C29        1.0     0.762842     0.445497     0.055335    Uiso  ? C
   C30        1.0     0.860371     0.388023     0.053225    Uiso  ? C
   C31        1.0     0.959002     0.443335     0.051638    Uiso  ? C
   C32        1.0     0.958288     0.554416     0.051555    Uiso  ? C
   C33        1.0     0.858299     0.607963     0.052753    Uiso  ? C
   C34        1.0     0.056180     0.721198     0.052223    Uiso  ? C
   C35        1.0     0.155097     0.777315     0.053598    Uiso  ? C
   C36        1.0     0.155921     0.888313     0.054233    Uiso  ? C
   C37        1.0     0.055619     0.943138     0.053601    Uiso  ? C
   C38        1.0     0.254074     0.721438     0.055325    Uiso  ? C
   C39        1.0     0.352492     0.777311     0.058354    Uiso  ? C
   C40        1.0     0.355485     0.888722     0.058267    Uiso  ? C
   C41        1.0     0.255945     0.944227     0.056025    Uiso  ? C
   C42        1.0     0.450512     0.719700     0.062005    Uiso  ? C
   C43        1.0     0.555111     0.885199     0.061156    Uiso  ? C
   C44        1.0     0.456391     0.944327     0.059903    Uiso  ? C
   C45        1.0     0.756271     0.881749     0.056226    Uiso  ? C
   C46        1.0     0.656181     0.940418     0.058781    Uiso  ? C
   C47        1.0     0.857281     0.720772     0.053191    Uiso  ? C
   C48        1.0     0.956404     0.776055     0.052745    Uiso  ? C
   C49        1.0     0.955973     0.887380     0.053485    Uiso  ? C
   C50        1.0     0.854999     0.941173     0.054816    Uiso  ? C
   C51        1.0     0.454516     0.607725     0.062198    Uiso  ? C
   C52        1.0     0.549831     0.774742     0.063405    Uiso  ? C
   N1         1.0     0.449553     0.390456     0.060471    Uiso  ? N
   N2         1.0     0.666231     0.393973     0.058881    Uiso  ? N
   N3         1.0     0.761796     0.553848     0.054448    Uiso  ? N
   N4         1.0     0.759150     0.772246     0.054871    Uiso  ? N
   Fe1        1.0     0.644767     0.662664     0.058996    Uiso  ? Fe
   Ni1        1.0     0.560956     0.502716     0.064613    Uiso  ? Ni
