
#======================================================================
# CRYSTAL DATA
#----------------------------------------------------------------------
data_VESTA_phase_1

_chemical_name_common                  'CONTCAR\(3)                           '
_cell_length_a                         12.331300
_cell_length_b                         12.829200
_cell_length_c                         19.994400
_cell_angle_alpha                      89.996696
_cell_angle_beta                       89.998299
_cell_angle_gamma                      89.999496
_cell_volume                           3163.128245
_space_group_name_H-M_alt              'P 1'
_space_group_IT_number                 1

loop_
_space_group_symop_operation_xyz
   'x, y, z'

loop_
   _atom_site_label
   _atom_site_occupancy
   _atom_site_fract_x
   _atom_site_fract_y
   _atom_site_fract_z
   _atom_site_adp_type
   _atom_site_U_iso_or_equiv
   _atom_site_type_symbol
   C1         1.0     0.056062     0.055115     0.051844    Uiso  ? C
   C2         1.0     0.156435     0.110651     0.051641    Uiso  ? C
   C3         1.0     0.156267     0.221489     0.049983    Uiso  ? C
   C4         1.0     0.055950     0.276488     0.049060    Uiso  ? C
   C5         1.0     0.256917     0.055882     0.053582    Uiso  ? C
   C6         1.0     0.357315     0.111647     0.056552    Uiso  ? C
   C7         1.0     0.356738     0.223525     0.055208    Uiso  ? C
   C8         1.0     0.256021     0.277245     0.050475    Uiso  ? C
   C9         1.0     0.457392     0.055427     0.060682    Uiso  ? C
   C10        1.0     0.556759     0.112790     0.063579    Uiso  ? C
   C11        1.0     0.556858     0.227699     0.063907    Uiso  ? C
   C12        1.0     0.455293     0.283654     0.059107    Uiso  ? C
   C13        1.0     0.654936     0.051581     0.063961    Uiso  ? C
   C14        1.0     0.754439     0.109741     0.061217    Uiso  ? C
   C15        1.0     0.755672     0.222643     0.061494    Uiso  ? C
   C16        1.0     0.657894     0.284284     0.065934    Uiso  ? C
   C17        1.0     0.854718     0.053902     0.057310    Uiso  ? C
   C18        1.0     0.955215     0.109510     0.053917    Uiso  ? C
   C19        1.0     0.955939     0.220781     0.052794    Uiso  ? C
   C20        1.0     0.856521     0.276731     0.056284    Uiso  ? C
   C21        1.0     0.056332     0.387401     0.046065    Uiso  ? C
   C22        1.0     0.155549     0.443533     0.044367    Uiso  ? C
   C23        1.0     0.155992     0.554308     0.043084    Uiso  ? C
   C24        1.0     0.057493     0.610679     0.042918    Uiso  ? C
   C25        1.0     0.254972     0.388461     0.047762    Uiso  ? C
   C26        1.0     0.353830     0.443632     0.051539    Uiso  ? C
   C27        1.0     0.353815     0.555986     0.052262    Uiso  ? C
   C28        1.0     0.254946     0.610290     0.046595    Uiso  ? C
   C29        1.0     0.760943     0.445439     0.062582    Uiso  ? C
   C30        1.0     0.858400     0.388101     0.054554    Uiso  ? C
   C31        1.0     0.957473     0.443558     0.047824    Uiso  ? C
   C32        1.0     0.958552     0.554796     0.046117    Uiso  ? C
   C33        1.0     0.860345     0.610433     0.052514    Uiso  ? C
   C34        1.0     0.057349     0.721640     0.044444    Uiso  ? C
   C35        1.0     0.155924     0.777790     0.046290    Uiso  ? C
   C36        1.0     0.156396     0.888929     0.049278    Uiso  ? C
   C37        1.0     0.056357     0.944502     0.050342    Uiso  ? C
   C38        1.0     0.254453     0.721533     0.048182    Uiso  ? C
   C39        1.0     0.352909     0.776538     0.054567    Uiso  ? C
   C40        1.0     0.355434     0.887996     0.056328    Uiso  ? C
   C41        1.0     0.256288     0.944318     0.052805    Uiso  ? C
   C42        1.0     0.450016     0.718538     0.061783    Uiso  ? C
   C43        1.0     0.552492     0.881181     0.066133    Uiso  ? C
   C44        1.0     0.456092     0.942548     0.061343    Uiso  ? C
   C45        1.0     0.757294     0.881150     0.060641    Uiso  ? C
   C46        1.0     0.654549     0.936536     0.064776    Uiso  ? C
   C47        1.0     0.860663     0.722892     0.052271    Uiso  ? C
   C48        1.0     0.958426     0.777989     0.048142    Uiso  ? C
   C49        1.0     0.956703     0.888804     0.051181    Uiso  ? C
   C50        1.0     0.855351     0.941747     0.056362    Uiso  ? C
   C51        1.0     0.761596     0.556935     0.062828    Uiso  ? C
   N1         1.0     0.450508     0.391122     0.057565    Uiso  ? N
   N2         1.0     0.663639     0.392466     0.070217    Uiso  ? N
   N3         1.0     0.545619     0.771773     0.070142    Uiso  ? N
   N4         1.0     0.763251     0.773215     0.059266    Uiso  ? N
   N5         1.0     0.450290     0.609455     0.060980    Uiso  ? N
   Fe1        1.0     0.652656     0.660357     0.074051    Uiso  ? Fe
   Ni1        1.0     0.556108     0.497259     0.073204    Uiso  ? Ni
   H1         1.0     0.613351     0.573356     0.128866    Uiso  ? H
