
#======================================================================
# CRYSTAL DATA
#----------------------------------------------------------------------
data_VESTA_phase_1

_chemical_name_common                  'CONTCAR\(3)                           '
_cell_length_a                         12.331300
_cell_length_b                         12.829200
_cell_length_c                         19.994400
_cell_angle_alpha                      89.996696
_cell_angle_beta                       89.998299
_cell_angle_gamma                      89.999496
_cell_volume                           3163.128245
_space_group_name_H-M_alt              'P 1'
_space_group_IT_number                 1

loop_
_space_group_symop_operation_xyz
   'x, y, z'

loop_
   _atom_site_label
   _atom_site_occupancy
   _atom_site_fract_x
   _atom_site_fract_y
   _atom_site_fract_z
   _atom_site_adp_type
   _atom_site_U_iso_or_equiv
   _atom_site_type_symbol
   C1         1.0     0.056056     0.055288     0.049233    Uiso  ? C
   C2         1.0     0.156525     0.110822     0.049261    Uiso  ? C
   C3         1.0     0.156200     0.221699     0.048124    Uiso  ? C
   C4         1.0     0.055842     0.276896     0.047584    Uiso  ? C
   C5         1.0     0.257038     0.055887     0.051269    Uiso  ? C
   C6         1.0     0.357438     0.111645     0.054222    Uiso  ? C
   C7         1.0     0.356684     0.223606     0.053336    Uiso  ? C
   C8         1.0     0.255922     0.277453     0.049056    Uiso  ? C
   C9         1.0     0.457478     0.055243     0.058308    Uiso  ? C
   C10        1.0     0.556748     0.112980     0.061144    Uiso  ? C
   C11        1.0     0.556723     0.227580     0.061833    Uiso  ? C
   C12        1.0     0.455142     0.283837     0.057842    Uiso  ? C
   C13        1.0     0.654961     0.051943     0.061086    Uiso  ? C
   C14        1.0     0.754486     0.109923     0.058003    Uiso  ? C
   C15        1.0     0.755685     0.222589     0.058498    Uiso  ? C
   C16        1.0     0.658055     0.283920     0.063066    Uiso  ? C
   C17        1.0     0.854788     0.054218     0.053976    Uiso  ? C
   C18        1.0     0.955246     0.109875     0.051048    Uiso  ? C
   C19        1.0     0.955827     0.221200     0.050585    Uiso  ? C
   C20        1.0     0.856359     0.277168     0.054062    Uiso  ? C
   C21        1.0     0.056039     0.387806     0.045752    Uiso  ? C
   C22        1.0     0.155305     0.443901     0.044595    Uiso  ? C
   C23        1.0     0.155675     0.554640     0.044076    Uiso  ? C
   C24        1.0     0.056887     0.610903     0.043946    Uiso  ? C
   C25        1.0     0.254814     0.388710     0.047190    Uiso  ? C
   C26        1.0     0.353783     0.443868     0.051260    Uiso  ? C
   C27        1.0     0.354176     0.556471     0.051913    Uiso  ? C
   C28        1.0     0.254934     0.610493     0.047015    Uiso  ? C
   C29        1.0     0.759338     0.445772     0.059918    Uiso  ? C
   C30        1.0     0.857773     0.388586     0.053203    Uiso  ? C
   C31        1.0     0.956937     0.444053     0.047735    Uiso  ? C
   C32        1.0     0.957624     0.555248     0.046495    Uiso  ? C
   C33        1.0     0.858162     0.610568     0.051204    Uiso  ? C
   C34        1.0     0.057239     0.721867     0.044597    Uiso  ? C
   C35        1.0     0.156110     0.777879     0.046013    Uiso  ? C
   C36        1.0     0.156587     0.888996     0.047882    Uiso  ? C
   C37        1.0     0.056457     0.944645     0.048216    Uiso  ? C
   C38        1.0     0.254853     0.721699     0.047987    Uiso  ? C
   C39        1.0     0.353899     0.776295     0.053296    Uiso  ? C
   C40        1.0     0.355858     0.887783     0.054502    Uiso  ? C
   C41        1.0     0.256585     0.944256     0.050949    Uiso  ? C
   C42        1.0     0.451661     0.717963     0.060097    Uiso  ? C
   C43        1.0     0.553070     0.880719     0.063777    Uiso  ? C
   C44        1.0     0.456450     0.942423     0.059036    Uiso  ? C
   C45        1.0     0.757212     0.882134     0.057658    Uiso  ? C
   C46        1.0     0.654676     0.937064     0.062071    Uiso  ? C
   C47        1.0     0.859945     0.723346     0.050648    Uiso  ? C
   C48        1.0     0.958234     0.778115     0.046960    Uiso  ? C
   C49        1.0     0.956702     0.888997     0.048953    Uiso  ? C
   C50        1.0     0.855480     0.942271     0.053076    Uiso  ? C
   C51        1.0     0.758687     0.557679     0.059961    Uiso  ? C
   N1         1.0     0.450194     0.391344     0.057852    Uiso  ? N
   N2         1.0     0.663164     0.391637     0.066377    Uiso  ? N
   N3         1.0     0.547295     0.771274     0.068309    Uiso  ? N
   N4         1.0     0.762953     0.774381     0.057610    Uiso  ? N
   N5         1.0     0.451363     0.609433     0.059130    Uiso  ? N
   Fe1        1.0     0.662082     0.668816     0.088327    Uiso  ? Fe
   Ni1        1.0     0.555744     0.496422     0.074505    Uiso  ? Ni
   O1         1.0     0.609647     0.583845     0.155936    Uiso  ? O
   H1         1.0     0.544063     0.612917     0.176118    Uiso  ? H
