
#======================================================================
# CRYSTAL DATA
#----------------------------------------------------------------------
data_VESTA_phase_1

_chemical_name_common                  'CONTCAR\(3)                           '
_cell_length_a                         12.331300
_cell_length_b                         12.829200
_cell_length_c                         19.994400
_cell_angle_alpha                      89.996696
_cell_angle_beta                       89.998299
_cell_angle_gamma                      89.999496
_cell_volume                           3163.128245
_space_group_name_H-M_alt              'P 1'
_space_group_IT_number                 1

loop_
_space_group_symop_operation_xyz
   'x, y, z'

loop_
   _atom_site_label
   _atom_site_occupancy
   _atom_site_fract_x
   _atom_site_fract_y
   _atom_site_fract_z
   _atom_site_adp_type
   _atom_site_U_iso_or_equiv
   _atom_site_type_symbol
   C1         1.0     0.056202     0.055121     0.050363    Uiso  ? C
   C2         1.0     0.156655     0.110489     0.049870    Uiso  ? C
   C3         1.0     0.156146     0.221350     0.048287    Uiso  ? C
   C4         1.0     0.055751     0.276618     0.048203    Uiso  ? C
   C5         1.0     0.257218     0.055388     0.051688    Uiso  ? C
   C6         1.0     0.357578     0.111038     0.054831    Uiso  ? C
   C7         1.0     0.356706     0.223066     0.053209    Uiso  ? C
   C8         1.0     0.255922     0.276937     0.048238    Uiso  ? C
   C9         1.0     0.457619     0.054701     0.059551    Uiso  ? C
   C10        1.0     0.556730     0.112486     0.063189    Uiso  ? C
   C11        1.0     0.556645     0.227267     0.063990    Uiso  ? C
   C12        1.0     0.455037     0.283208     0.058058    Uiso  ? C
   C13        1.0     0.655028     0.051537     0.063805    Uiso  ? C
   C14        1.0     0.754501     0.109677     0.061067    Uiso  ? C
   C15        1.0     0.755634     0.222498     0.061976    Uiso  ? C
   C16        1.0     0.657815     0.283769     0.066897    Uiso  ? C
   C17        1.0     0.854996     0.054276     0.056473    Uiso  ? C
   C18        1.0     0.955386     0.109836     0.052897    Uiso  ? C
   C19        1.0     0.955830     0.221101     0.052443    Uiso  ? C
   C20        1.0     0.856305     0.277000     0.057052    Uiso  ? C
   C21        1.0     0.055774     0.387586     0.045527    Uiso  ? C
   C22        1.0     0.155070     0.443461     0.042708    Uiso  ? C
   C23        1.0     0.155515     0.554275     0.041754    Uiso  ? C
   C24        1.0     0.056813     0.610622     0.042549    Uiso  ? C
   C25        1.0     0.254651     0.388124     0.045108    Uiso  ? C
   C26        1.0     0.353532     0.443200     0.048930    Uiso  ? C
   C27        1.0     0.353894     0.556005     0.049714    Uiso  ? C
   C28        1.0     0.254740     0.610121     0.044604    Uiso  ? C
   C29        1.0     0.759254     0.445370     0.064396    Uiso  ? C
   C30        1.0     0.857590     0.388434     0.056207    Uiso  ? C
   C31        1.0     0.956650     0.443857     0.048646    Uiso  ? C
   C32        1.0     0.957708     0.555068     0.046620    Uiso  ? C
   C33        1.0     0.858770     0.610790     0.052727    Uiso  ? C
   C34        1.0     0.057310     0.721737     0.043509    Uiso  ? C
   C35        1.0     0.156269     0.777604     0.044922    Uiso  ? C
   C36        1.0     0.156771     0.888704     0.047733    Uiso  ? C
   C37        1.0     0.056705     0.944470     0.048921    Uiso  ? C
   C38        1.0     0.255050     0.721266     0.046607    Uiso  ? C
   C39        1.0     0.354155     0.775551     0.053098    Uiso  ? C
   C40        1.0     0.356146     0.887156     0.054791    Uiso  ? C
   C41        1.0     0.256812     0.943766     0.051097    Uiso  ? C
   C42        1.0     0.452011     0.717075     0.060146    Uiso  ? C
   C43        1.0     0.553259     0.879710     0.065051    Uiso  ? C
   C44        1.0     0.456640     0.941675     0.060012    Uiso  ? C
   C45        1.0     0.757954     0.882343     0.060781    Uiso  ? C
   C46        1.0     0.654872     0.936553     0.064655    Uiso  ? C
   C47        1.0     0.860207     0.723744     0.052356    Uiso  ? C
   C48        1.0     0.958460     0.778180     0.047180    Uiso  ? C
   C49        1.0     0.956979     0.889026     0.050057    Uiso  ? C
   C50        1.0     0.855982     0.942489     0.055382    Uiso  ? C
   C51        1.0     0.760605     0.557124     0.063309    Uiso  ? C
   N1         1.0     0.449830     0.390773     0.056964    Uiso  ? N
   N2         1.0     0.662846     0.391700     0.071588    Uiso  ? N
   N3         1.0     0.547449     0.770263     0.068244    Uiso  ? N
   N4         1.0     0.763992     0.775050     0.061158    Uiso  ? N
   N5         1.0     0.450501     0.608226     0.058283    Uiso  ? N
   Fe1        1.0     0.663777     0.664731     0.093077    Uiso  ? Fe
   Ni1        1.0     0.551863     0.494580     0.080481    Uiso  ? Ni
   O1         1.0     0.605585     0.580196     0.147722    Uiso  ? O
