
#======================================================================
# CRYSTAL DATA
#----------------------------------------------------------------------
data_VESTA_phase_1

_chemical_name_common                  'CONTCAR\(3)                           '
_cell_length_a                         12.331300
_cell_length_b                         12.829200
_cell_length_c                         19.994400
_cell_angle_alpha                      89.996696
_cell_angle_beta                       89.998299
_cell_angle_gamma                      89.999496
_cell_volume                           3163.128245
_space_group_name_H-M_alt              'P 1'
_space_group_IT_number                 1

loop_
_space_group_symop_operation_xyz
   'x, y, z'

loop_
   _atom_site_label
   _atom_site_occupancy
   _atom_site_fract_x
   _atom_site_fract_y
   _atom_site_fract_z
   _atom_site_adp_type
   _atom_site_U_iso_or_equiv
   _atom_site_type_symbol
   C1         1.0     0.055086     0.053573     0.051759    Uiso  ? C
   C2         1.0     0.155454     0.109093     0.050946    Uiso  ? C
   C3         1.0     0.155191     0.219988     0.050180    Uiso  ? C
   C4         1.0     0.054917     0.275060     0.050783    Uiso  ? C
   C5         1.0     0.256002     0.054262     0.051456    Uiso  ? C
   C6         1.0     0.356472     0.109945     0.053521    Uiso  ? C
   C7         1.0     0.355730     0.221848     0.052628    Uiso  ? C
   C8         1.0     0.254934     0.275681     0.049750    Uiso  ? C
   C9         1.0     0.456628     0.053770     0.056767    Uiso  ? C
   C10        1.0     0.555835     0.111341     0.060121    Uiso  ? C
   C11        1.0     0.555849     0.226200     0.060512    Uiso  ? C
   C12        1.0     0.454298     0.282021     0.055324    Uiso  ? C
   C13        1.0     0.654019     0.050144     0.061626    Uiso  ? C
   C14        1.0     0.753491     0.108327     0.060248    Uiso  ? C
   C15        1.0     0.754642     0.221282     0.060969    Uiso  ? C
   C16        1.0     0.656732     0.282927     0.064012    Uiso  ? C
   C17        1.0     0.853713     0.052329     0.057177    Uiso  ? C
   C18        1.0     0.954199     0.108007     0.054282    Uiso  ? C
   C19        1.0     0.954894     0.219369     0.054005    Uiso  ? C
   C20        1.0     0.855478     0.275509     0.057459    Uiso  ? C
   C21        1.0     0.055295     0.386120     0.049159    Uiso  ? C
   C22        1.0     0.154464     0.442126     0.046685    Uiso  ? C
   C23        1.0     0.154934     0.552871     0.045380    Uiso  ? C
   C24        1.0     0.056446     0.609218     0.046588    Uiso  ? C
   C25        1.0     0.253864     0.386949     0.047757    Uiso  ? C
   C26        1.0     0.352972     0.441980     0.048938    Uiso  ? C
   C27        1.0     0.353400     0.554564     0.049231    Uiso  ? C
   C28        1.0     0.254087     0.608791     0.046125    Uiso  ? C
   C29        1.0     0.759561     0.444342     0.064258    Uiso  ? C
   C30        1.0     0.857328     0.386992     0.057145    Uiso  ? C
   C31        1.0     0.956553     0.442319     0.051829    Uiso  ? C
   C32        1.0     0.957458     0.553564     0.050791    Uiso  ? C
   C33        1.0     0.859234     0.609225     0.056979    Uiso  ? C
   C34        1.0     0.056299     0.720141     0.047049    Uiso  ? C
   C35        1.0     0.154970     0.776217     0.046661    Uiso  ? C
   C36        1.0     0.155489     0.887378     0.048657    Uiso  ? C
   C37        1.0     0.055440     0.942921     0.050495    Uiso  ? C
   C38        1.0     0.253702     0.719973     0.046852    Uiso  ? C
   C39        1.0     0.352674     0.774846     0.050761    Uiso  ? C
   C40        1.0     0.354871     0.886362     0.052487    Uiso  ? C
   C41        1.0     0.255498     0.942719     0.050434    Uiso  ? C
   C42        1.0     0.450345     0.716822     0.056356    Uiso  ? C
   C43        1.0     0.552006     0.879469     0.061793    Uiso  ? C
   C44        1.0     0.455538     0.940842     0.056868    Uiso  ? C
   C45        1.0     0.756234     0.879391     0.060524    Uiso  ? C
   C46        1.0     0.653677     0.935132     0.062475    Uiso  ? C
   C47        1.0     0.859368     0.721402     0.055605    Uiso  ? C
   C48        1.0     0.957271     0.776434     0.050767    Uiso  ? C
   C49        1.0     0.955761     0.887253     0.052309    Uiso  ? C
   C50        1.0     0.854364     0.940127     0.056655    Uiso  ? C
   C51        1.0     0.759896     0.556355     0.066030    Uiso  ? C
   N1         1.0     0.449661     0.389386     0.052675    Uiso  ? N
   N2         1.0     0.662124     0.391171     0.068574    Uiso  ? N
   N3         1.0     0.546050     0.769962     0.064919    Uiso  ? N
   N4         1.0     0.761650     0.771377     0.060770    Uiso  ? N
   N5         1.0     0.450649     0.607957     0.054952    Uiso  ? N
   Fe1        1.0     0.651421     0.659172     0.077251    Uiso  ? Fe
   Ni1        1.0     0.555186     0.496261     0.066604    Uiso  ? Ni
   H1         1.0     0.672898     0.662450     0.149673    Uiso  ? H
   H2         1.0     0.610597     0.570956     0.124973    Uiso  ? H
