
#======================================================================
# CRYSTAL DATA
#----------------------------------------------------------------------
data_VESTA_phase_1

_chemical_name_common                  'CONTCAR\(3)                           '
_cell_length_a                         12.331300
_cell_length_b                         12.829200
_cell_length_c                         19.994400
_cell_angle_alpha                      89.996696
_cell_angle_beta                       89.998299
_cell_angle_gamma                      89.999496
_cell_volume                           3163.128245
_space_group_name_H-M_alt              'P 1'
_space_group_IT_number                 1

loop_
_space_group_symop_operation_xyz
   'x, y, z'

loop_
   _atom_site_label
   _atom_site_occupancy
   _atom_site_fract_x
   _atom_site_fract_y
   _atom_site_fract_z
   _atom_site_adp_type
   _atom_site_U_iso_or_equiv
   _atom_site_type_symbol
   C1         1.0     0.057825     0.055124     0.048370    Uiso  ? C
   C2         1.0     0.158012     0.110849     0.048199    Uiso  ? C
   C3         1.0     0.157744     0.221848     0.047723    Uiso  ? C
   C4         1.0     0.057613     0.276935     0.047661    Uiso  ? C
   C5         1.0     0.258414     0.055846     0.048859    Uiso  ? C
   C6         1.0     0.358811     0.111493     0.050646    Uiso  ? C
   C7         1.0     0.358059     0.223480     0.050358    Uiso  ? C
   C8         1.0     0.257467     0.277693     0.047974    Uiso  ? C
   C9         1.0     0.458929     0.055300     0.052809    Uiso  ? C
   C10        1.0     0.558193     0.112738     0.055090    Uiso  ? C
   C11        1.0     0.558280     0.227031     0.055661    Uiso  ? C
   C12        1.0     0.456538     0.283382     0.052939    Uiso  ? C
   C13        1.0     0.656513     0.051875     0.055671    Uiso  ? C
   C14        1.0     0.756260     0.109343     0.054029    Uiso  ? C
   C15        1.0     0.757567     0.221761     0.054101    Uiso  ? C
   C16        1.0     0.659725     0.282621     0.056757    Uiso  ? C
   C17        1.0     0.856858     0.054271     0.051657    Uiso  ? C
   C18        1.0     0.957247     0.109811     0.049632    Uiso  ? C
   C19        1.0     0.957881     0.220895     0.049399    Uiso  ? C
   C20        1.0     0.858240     0.276292     0.051590    Uiso  ? C
   C21        1.0     0.057749     0.388132     0.046729    Uiso  ? C
   C22        1.0     0.156891     0.443995     0.045500    Uiso  ? C
   C23        1.0     0.156885     0.554816     0.044871    Uiso  ? C
   C24        1.0     0.057398     0.610598     0.045585    Uiso  ? C
   C25        1.0     0.256522     0.388929     0.046569    Uiso  ? C
   C26        1.0     0.356118     0.443713     0.048153    Uiso  ? C
   C27        1.0     0.357172     0.557024     0.047883    Uiso  ? C
   C28        1.0     0.256717     0.610457     0.045532    Uiso  ? C
   C29        1.0     0.761292     0.443487     0.056786    Uiso  ? C
   C30        1.0     0.859876     0.387605     0.051809    Uiso  ? C
   C31        1.0     0.958398     0.444034     0.048562    Uiso  ? C
   C32        1.0     0.957491     0.555332     0.048316    Uiso  ? C
   C33        1.0     0.856707     0.610213     0.052879    Uiso  ? C
   C34        1.0     0.058006     0.721723     0.045640    Uiso  ? C
   C35        1.0     0.157055     0.777549     0.045461    Uiso  ? C
   C36        1.0     0.157859     0.888813     0.046715    Uiso  ? C
   C37        1.0     0.058031     0.944340     0.047712    Uiso  ? C
   C38        1.0     0.256042     0.721614     0.045777    Uiso  ? C
   C39        1.0     0.354981     0.776631     0.048125    Uiso  ? C
   C40        1.0     0.357234     0.888106     0.049328    Uiso  ? C
   C41        1.0     0.257799     0.944346     0.048054    Uiso  ? C
   C42        1.0     0.453354     0.719207     0.051277    Uiso  ? C
   C43        1.0     0.554856     0.880830     0.055431    Uiso  ? C
   C44        1.0     0.457887     0.942422     0.052365    Uiso  ? C
   C45        1.0     0.759366     0.883160     0.055601    Uiso  ? C
   C46        1.0     0.656218     0.937402     0.056564    Uiso  ? C
   C47        1.0     0.859677     0.723752     0.052027    Uiso  ? C
   C48        1.0     0.959035     0.777782     0.047927    Uiso  ? C
   C49        1.0     0.958248     0.888693     0.048886    Uiso  ? C
   C50        1.0     0.857650     0.942745     0.051704    Uiso  ? C
   C51        1.0     0.757118     0.555100     0.059610    Uiso  ? C
   N1         1.0     0.451696     0.390634     0.051634    Uiso  ? N
   N2         1.0     0.665248     0.389720     0.059127    Uiso  ? N
   N3         1.0     0.549057     0.771779     0.056179    Uiso  ? N
   N4         1.0     0.764714     0.776601     0.057531    Uiso  ? N
   N5         1.0     0.454550     0.610498     0.050806    Uiso  ? N
   Fe1        1.0     0.657604     0.666438     0.093990    Uiso  ? Fe
   Ni1        1.0     0.559642     0.496479     0.072603    Uiso  ? Ni
   O1         1.0     0.535523     0.493819     0.166752    Uiso  ? O
   O2         1.0     0.657116     0.689636     0.185047    Uiso  ? O
   H1         1.0     0.701435     0.642848     0.212002    Uiso  ? H
   H2         1.0     0.548106     0.562982     0.185958    Uiso  ? H
