
#======================================================================
# CRYSTAL DATA
#----------------------------------------------------------------------
data_VESTA_phase_1

_chemical_name_common                  'CONTCAR\(3)                           '
_cell_length_a                         12.331300
_cell_length_b                         12.829200
_cell_length_c                         19.994400
_cell_angle_alpha                      89.996696
_cell_angle_beta                       89.998299
_cell_angle_gamma                      89.999496
_cell_volume                           3163.128245
_space_group_name_H-M_alt              'P 1'
_space_group_IT_number                 1

loop_
_space_group_symop_operation_xyz
   'x, y, z'

loop_
   _atom_site_label
   _atom_site_occupancy
   _atom_site_fract_x
   _atom_site_fract_y
   _atom_site_fract_z
   _atom_site_adp_type
   _atom_site_U_iso_or_equiv
   _atom_site_type_symbol
   C1         1.0     0.057666     0.055444     0.050329    Uiso  ? C
   C2         1.0     0.157864     0.111186     0.050186    Uiso  ? C
   C3         1.0     0.157593     0.222154     0.049595    Uiso  ? C
   C4         1.0     0.057466     0.277166     0.049008    Uiso  ? C
   C5         1.0     0.258267     0.056278     0.051229    Uiso  ? C
   C6         1.0     0.358671     0.111893     0.053280    Uiso  ? C
   C7         1.0     0.357913     0.223926     0.053210    Uiso  ? C
   C8         1.0     0.257311     0.278000     0.050436    Uiso  ? C
   C9         1.0     0.458737     0.055669     0.055532    Uiso  ? C
   C10        1.0     0.558079     0.113017     0.057518    Uiso  ? C
   C11        1.0     0.558135     0.227517     0.058020    Uiso  ? C
   C12        1.0     0.456336     0.283811     0.056525    Uiso  ? C
   C13        1.0     0.656307     0.052131     0.057871    Uiso  ? C
   C14        1.0     0.756016     0.109669     0.055852    Uiso  ? C
   C15        1.0     0.757342     0.222176     0.055188    Uiso  ? C
   C16        1.0     0.659472     0.283119     0.057458    Uiso  ? C
   C17        1.0     0.856568     0.054477     0.053632    Uiso  ? C
   C18        1.0     0.957041     0.109978     0.051242    Uiso  ? C
   C19        1.0     0.957735     0.221077     0.050600    Uiso  ? C
   C20        1.0     0.858173     0.276479     0.052480    Uiso  ? C
   C21        1.0     0.057614     0.388385     0.048114    Uiso  ? C
   C22        1.0     0.156776     0.444325     0.047364    Uiso  ? C
   C23        1.0     0.156840     0.555167     0.047238    Uiso  ? C
   C24        1.0     0.057566     0.611008     0.047956    Uiso  ? C
   C25        1.0     0.256267     0.389254     0.048919    Uiso  ? C
   C26        1.0     0.355635     0.444239     0.051504    Uiso  ? C
   C27        1.0     0.356764     0.557448     0.050078    Uiso  ? C
   C28        1.0     0.256479     0.610924     0.048075    Uiso  ? C
   C29        1.0     0.761500     0.443673     0.055717    Uiso  ? C
   C30        1.0     0.859969     0.387732     0.052438    Uiso  ? C
   C31        1.0     0.958517     0.444247     0.049703    Uiso  ? C
   C32        1.0     0.957852     0.555642     0.049956    Uiso  ? C
   C33        1.0     0.857490     0.610583     0.053820    Uiso  ? C
   C34        1.0     0.057996     0.722120     0.048210    Uiso  ? C
   C35        1.0     0.156937     0.778032     0.048082    Uiso  ? C
   C36        1.0     0.157725     0.889243     0.049299    Uiso  ? C
   C37        1.0     0.057899     0.944699     0.050167    Uiso  ? C
   C38        1.0     0.255777     0.722107     0.048342    Uiso  ? C
   C39        1.0     0.354704     0.777032     0.050679    Uiso  ? C
   C40        1.0     0.356985     0.888558     0.051955    Uiso  ? C
   C41        1.0     0.257634     0.944794     0.050638    Uiso  ? C
   C42        1.0     0.453016     0.719596     0.052789    Uiso  ? C
   C43        1.0     0.554581     0.880956     0.057352    Uiso  ? C
   C44        1.0     0.457670     0.942769     0.054865    Uiso  ? C
   C45        1.0     0.759081     0.883215     0.058940    Uiso  ? C
   C46        1.0     0.656016     0.937480     0.059020    Uiso  ? C
   C47        1.0     0.860101     0.723864     0.055219    Uiso  ? C
   C48        1.0     0.959116     0.778159     0.050782    Uiso  ? C
   C49        1.0     0.958151     0.889077     0.051703    Uiso  ? C
   C50        1.0     0.857359     0.942882     0.054366    Uiso  ? C
   C51        1.0     0.757497     0.555307     0.057364    Uiso  ? C
   N1         1.0     0.451384     0.391378     0.057274    Uiso  ? N
   N2         1.0     0.665005     0.390645     0.057594    Uiso  ? N
   N3         1.0     0.548897     0.771949     0.057073    Uiso  ? N
   N4         1.0     0.764682     0.776388     0.062558    Uiso  ? N
   N5         1.0     0.454260     0.610799     0.051155    Uiso  ? N
   Fe1        1.0     0.657525     0.662093     0.089062    Uiso  ? Fe
   Ni1        1.0     0.560398     0.497307     0.070281    Uiso  ? Ni
   O1         1.0     0.563888     0.528814     0.165919    Uiso  ? O
   O2         1.0     0.604244     0.628134     0.173201    Uiso  ? O
