
#======================================================================
# CRYSTAL DATA
#----------------------------------------------------------------------
data_VESTA_phase_1

_chemical_name_common                  'POSCAR\(2)                            '
_cell_length_a                         12.331300
_cell_length_b                         12.829200
_cell_length_c                         19.994400
_cell_angle_alpha                      89.996696
_cell_angle_beta                       89.998299
_cell_angle_gamma                      89.999496
_cell_volume                           3163.128245
_space_group_name_H-M_alt              'P 1'
_space_group_IT_number                 1

loop_
_space_group_symop_operation_xyz
   'x, y, z'

loop_
   _atom_site_label
   _atom_site_occupancy
   _atom_site_fract_x
   _atom_site_fract_y
   _atom_site_fract_z
   _atom_site_adp_type
   _atom_site_U_iso_or_equiv
   _atom_site_type_symbol
   C1         1.0     0.056236     0.054771     0.055777    Uiso  ? C
   C2         1.0     0.156460     0.110477     0.055784    Uiso  ? C
   C3         1.0     0.156437     0.221343     0.055767    Uiso  ? C
   C4         1.0     0.056357     0.276304     0.055750    Uiso  ? C
   C5         1.0     0.256842     0.055755     0.055790    Uiso  ? C
   C6         1.0     0.357229     0.111531     0.055764    Uiso  ? C
   C7         1.0     0.356711     0.223275     0.055744    Uiso  ? C
   C8         1.0     0.256039     0.277221     0.055757    Uiso  ? C
   C9         1.0     0.457399     0.055556     0.055734    Uiso  ? C
   C10        1.0     0.556837     0.112910     0.055692    Uiso  ? C
   C11        1.0     0.557017     0.227546     0.055669    Uiso  ? C
   C12        1.0     0.455276     0.283414     0.055685    Uiso  ? C
   C13        1.0     0.654995     0.051780     0.055676    Uiso  ? C
   C14        1.0     0.754593     0.109722     0.055701    Uiso  ? C
   C15        1.0     0.755859     0.222458     0.055706    Uiso  ? C
   C16        1.0     0.658012     0.284230     0.055667    Uiso  ? C
   C17        1.0     0.854870     0.053762     0.055719    Uiso  ? C
   C18        1.0     0.955517     0.109199     0.055746    Uiso  ? C
   C19        1.0     0.956434     0.220356     0.055738    Uiso  ? C
   C20        1.0     0.857091     0.276203     0.055724    Uiso  ? C
   C21        1.0     0.057046     0.387276     0.055755    Uiso  ? C
   C22        1.0     0.155900     0.443530     0.055764    Uiso  ? C
   C23        1.0     0.156225     0.554202     0.055764    Uiso  ? C
   C24        1.0     0.057582     0.610411     0.055755    Uiso  ? C
   C25        1.0     0.255221     0.388478     0.055756    Uiso  ? C
   C26        1.0     0.354363     0.443464     0.055724    Uiso  ? C
   C27        1.0     0.354940     0.556033     0.055721    Uiso  ? C
   C28        1.0     0.255401     0.610112     0.055758    Uiso  ? C
   C29        1.0     0.761748     0.444350     0.055670    Uiso  ? C
   C30        1.0     0.859523     0.387309     0.055714    Uiso  ? C
   C31        1.0     0.958374     0.443417     0.055736    Uiso  ? C
   C32        1.0     0.958635     0.554603     0.055726    Uiso  ? C
   C33        1.0     0.859119     0.609859     0.055680    Uiso  ? C
   C34        1.0     0.057158     0.721315     0.055769    Uiso  ? C
   C35        1.0     0.155616     0.777459     0.055792    Uiso  ? C
   C36        1.0     0.156291     0.888641     0.055800    Uiso  ? C
   C37        1.0     0.056382     0.944119     0.055787    Uiso  ? C
   C38        1.0     0.254160     0.721332     0.055771    Uiso  ? C
   C39        1.0     0.352621     0.776787     0.055743    Uiso  ? C
   C40        1.0     0.355366     0.888210     0.055762    Uiso  ? C
   C41        1.0     0.256114     0.944274     0.055795    Uiso  ? C
   C42        1.0     0.450429     0.719409     0.055680    Uiso  ? C
   C43        1.0     0.552727     0.881905     0.055662    Uiso  ? C
   C44        1.0     0.456084     0.942964     0.055724    Uiso  ? C
   C45        1.0     0.757154     0.881303     0.055652    Uiso  ? C
   C46        1.0     0.654641     0.937007     0.055652    Uiso  ? C
   C47        1.0     0.859780     0.722602     0.055675    Uiso  ? C
   C48        1.0     0.958143     0.777477     0.055737    Uiso  ? C
   C49        1.0     0.956737     0.888386     0.055749    Uiso  ? C
   C50        1.0     0.855385     0.941673     0.055705    Uiso  ? C
   C51        1.0     0.759644     0.555400     0.055650    Uiso  ? C
   N1         1.0     0.450796     0.390686     0.055673    Uiso  ? N
   N2         1.0     0.663605     0.392345     0.055644    Uiso  ? N
   N3         1.0     0.546331     0.772932     0.055629    Uiso  ? N
   N4         1.0     0.762430     0.773290     0.055624    Uiso  ? N
   N5         1.0     0.452758     0.610332     0.055668    Uiso  ? N
   Fe1        1.0     0.646899     0.658027     0.055620    Uiso  ? Fe
   Ni1        1.0     0.559829     0.499867     0.055645    Uiso  ? Ni
