
#======================================================================
# CRYSTAL DATA
#----------------------------------------------------------------------
data_VESTA_phase_1

_chemical_name_common                  'CONTCAR\(3)                           '
_cell_length_a                         12.331300
_cell_length_b                         12.829200
_cell_length_c                         19.994400
_cell_angle_alpha                      89.996696
_cell_angle_beta                       89.998299
_cell_angle_gamma                      89.999496
_cell_volume                           3163.128245
_space_group_name_H-M_alt              'P 1'
_space_group_IT_number                 1

loop_
_space_group_symop_operation_xyz
   'x, y, z'

loop_
   _atom_site_label
   _atom_site_occupancy
   _atom_site_fract_x
   _atom_site_fract_y
   _atom_site_fract_z
   _atom_site_adp_type
   _atom_site_U_iso_or_equiv
   _atom_site_type_symbol
   C1         1.0     0.055662     0.054403     0.050981    Uiso  ? C
   C2         1.0     0.155935     0.109961     0.051050    Uiso  ? C
   C3         1.0     0.156531     0.220791     0.050081    Uiso  ? C
   C4         1.0     0.056627     0.275852     0.048821    Uiso  ? C
   C5         1.0     0.256291     0.055452     0.052829    Uiso  ? C
   C6         1.0     0.356488     0.111470     0.055648    Uiso  ? C
   C7         1.0     0.357067     0.222895     0.055627    Uiso  ? C
   C8         1.0     0.256466     0.276730     0.051554    Uiso  ? C
   C9         1.0     0.456317     0.055831     0.058975    Uiso  ? C
   C10        1.0     0.556600     0.112325     0.061625    Uiso  ? C
   C11        1.0     0.557370     0.224049     0.063219    Uiso  ? C
   C12        1.0     0.456934     0.280756     0.060325    Uiso  ? C
   C13        1.0     0.656117     0.053974     0.061098    Uiso  ? C
   C14        1.0     0.755956     0.110457     0.058003    Uiso  ? C
   C15        1.0     0.756585     0.222416     0.058002    Uiso  ? C
   C16        1.0     0.658065     0.281632     0.063876    Uiso  ? C
   C17        1.0     0.855191     0.053613     0.054860    Uiso  ? C
   C18        1.0     0.955437     0.109376     0.052015    Uiso  ? C
   C19        1.0     0.956280     0.220667     0.050783    Uiso  ? C
   C20        1.0     0.856782     0.276890     0.052972    Uiso  ? C
   C21        1.0     0.057671     0.386940     0.047514    Uiso  ? C
   C22        1.0     0.156436     0.443251     0.047951    Uiso  ? C
   C23        1.0     0.156525     0.554842     0.047886    Uiso  ? C
   C24        1.0     0.057221     0.610315     0.047098    Uiso  ? C
   C25        1.0     0.255880     0.387680     0.050349    Uiso  ? C
   C26        1.0     0.354607     0.443558     0.054422    Uiso  ? C
   C27        1.0     0.355163     0.556268     0.054649    Uiso  ? C
   C28        1.0     0.255285     0.611354     0.050502    Uiso  ? C
   C29        1.0     0.761059     0.446906     0.057001    Uiso  ? C
   C30        1.0     0.858744     0.388287     0.051005    Uiso  ? C
   C31        1.0     0.958501     0.442541     0.047792    Uiso  ? C
   C32        1.0     0.958865     0.553223     0.047618    Uiso  ? C
   C33        1.0     0.859138     0.606925     0.050658    Uiso  ? C
   C34        1.0     0.056132     0.721501     0.048040    Uiso  ? C
   C35        1.0     0.154942     0.777670     0.048988    Uiso  ? C
   C36        1.0     0.155373     0.888746     0.050133    Uiso  ? C
   C37        1.0     0.055107     0.943468     0.050519    Uiso  ? C
   C38        1.0     0.254461     0.722259     0.050459    Uiso  ? C
   C39        1.0     0.353372     0.777752     0.054282    Uiso  ? C
   C40        1.0     0.355179     0.888850     0.055164    Uiso  ? C
   C41        1.0     0.255510     0.944435     0.052370    Uiso  ? C
   C42        1.0     0.451819     0.720667     0.062318    Uiso  ? C
   C43        1.0     0.554711     0.886658     0.064446    Uiso  ? C
   C44        1.0     0.455467     0.944302     0.059554    Uiso  ? C
   C45        1.0     0.754734     0.883527     0.058442    Uiso  ? C
   C46        1.0     0.655591     0.942371     0.062095    Uiso  ? C
   C47        1.0     0.856802     0.719765     0.052087    Uiso  ? C
   C48        1.0     0.955879     0.776213     0.049952    Uiso  ? C
   C49        1.0     0.955132     0.887325     0.051412    Uiso  ? C
   C50        1.0     0.854422     0.941404     0.054807    Uiso  ? C
   C51        1.0     0.454661     0.391558     0.060638    Uiso  ? C
   C52        1.0     0.661336     0.392631     0.068573    Uiso  ? C
   C53        1.0     0.550756     0.776888     0.069728    Uiso  ? C
   C54        1.0     0.755510     0.771305     0.057421    Uiso  ? C
   C55        1.0     0.454009     0.609086     0.063479    Uiso  ? C
   N1         1.0     0.763733     0.555153     0.055921    Uiso  ? N
   Fe1        1.0     0.647116     0.665090     0.073234    Uiso  ? Fe
   Ni1        1.0     0.557881     0.493305     0.083114    Uiso  ? Ni
   H1         1.0     0.612245     0.574456     0.134744    Uiso  ? H
