
#======================================================================
# CRYSTAL DATA
#----------------------------------------------------------------------
data_VESTA_phase_1

_chemical_name_common                  'CONTCAR\(3)                           '
_cell_length_a                         12.331300
_cell_length_b                         12.829200
_cell_length_c                         19.994400
_cell_angle_alpha                      89.996696
_cell_angle_beta                       89.998299
_cell_angle_gamma                      89.999496
_cell_volume                           3163.128245
_space_group_name_H-M_alt              'P 1'
_space_group_IT_number                 1

loop_
_space_group_symop_operation_xyz
   'x, y, z'

loop_
   _atom_site_label
   _atom_site_occupancy
   _atom_site_fract_x
   _atom_site_fract_y
   _atom_site_fract_z
   _atom_site_adp_type
   _atom_site_U_iso_or_equiv
   _atom_site_type_symbol
   C1         1.0     0.055099     0.054930     0.049030    Uiso  ? C
   C2         1.0     0.155395     0.110316     0.049267    Uiso  ? C
   C3         1.0     0.155828     0.221182     0.048273    Uiso  ? C
   C4         1.0     0.055924     0.276277     0.047045    Uiso  ? C
   C5         1.0     0.255757     0.055792     0.051226    Uiso  ? C
   C6         1.0     0.355978     0.111868     0.054085    Uiso  ? C
   C7         1.0     0.356463     0.223391     0.053993    Uiso  ? C
   C8         1.0     0.255788     0.277101     0.049877    Uiso  ? C
   C9         1.0     0.455636     0.056196     0.057503    Uiso  ? C
   C10        1.0     0.555868     0.112759     0.059968    Uiso  ? C
   C11        1.0     0.556512     0.224299     0.061755    Uiso  ? C
   C12        1.0     0.456330     0.281169     0.059086    Uiso  ? C
   C13        1.0     0.655516     0.054557     0.059190    Uiso  ? C
   C14        1.0     0.755297     0.111011     0.055923    Uiso  ? C
   C15        1.0     0.755819     0.222992     0.056041    Uiso  ? C
   C16        1.0     0.657183     0.281991     0.062047    Uiso  ? C
   C17        1.0     0.854666     0.054372     0.052739    Uiso  ? C
   C18        1.0     0.954927     0.110021     0.050030    Uiso  ? C
   C19        1.0     0.955555     0.221260     0.049134    Uiso  ? C
   C20        1.0     0.855959     0.277461     0.051598    Uiso  ? C
   C21        1.0     0.056718     0.387398     0.045545    Uiso  ? C
   C22        1.0     0.155526     0.443620     0.045836    Uiso  ? C
   C23        1.0     0.155622     0.555197     0.045676    Uiso  ? C
   C24        1.0     0.056423     0.610633     0.044928    Uiso  ? C
   C25        1.0     0.255137     0.388010     0.048674    Uiso  ? C
   C26        1.0     0.353831     0.443904     0.053258    Uiso  ? C
   C27        1.0     0.354181     0.556453     0.053543    Uiso  ? C
   C28        1.0     0.254651     0.611573     0.048563    Uiso  ? C
   C29        1.0     0.759418     0.447608     0.055426    Uiso  ? C
   C30        1.0     0.857517     0.388810     0.050071    Uiso  ? C
   C31        1.0     0.957380     0.443007     0.046220    Uiso  ? C
   C32        1.0     0.957917     0.553642     0.045710    Uiso  ? C
   C33        1.0     0.857864     0.607103     0.048403    Uiso  ? C
   C34        1.0     0.055554     0.721990     0.045841    Uiso  ? C
   C35        1.0     0.154466     0.777987     0.047114    Uiso  ? C
   C36        1.0     0.154893     0.889160     0.048382    Uiso  ? C
   C37        1.0     0.054661     0.943951     0.048587    Uiso  ? C
   C38        1.0     0.254082     0.722538     0.049038    Uiso  ? C
   C39        1.0     0.353121     0.777713     0.053632    Uiso  ? C
   C40        1.0     0.354809     0.888958     0.054069    Uiso  ? C
   C41        1.0     0.255088     0.944719     0.050835    Uiso  ? C
   C42        1.0     0.451897     0.720328     0.061492    Uiso  ? C
   C43        1.0     0.554298     0.886983     0.062846    Uiso  ? C
   C44        1.0     0.454905     0.944557     0.058223    Uiso  ? C
   C45        1.0     0.754380     0.884830     0.056930    Uiso  ? C
   C46        1.0     0.655088     0.943069     0.060437    Uiso  ? C
   C47        1.0     0.855960     0.720447     0.049933    Uiso  ? C
   C48        1.0     0.955394     0.776683     0.047804    Uiso  ? C
   C49        1.0     0.954633     0.887860     0.049428    Uiso  ? C
   C50        1.0     0.854117     0.942333     0.052753    Uiso  ? C
   C51        1.0     0.453908     0.392097     0.060712    Uiso  ? C
   C52        1.0     0.659919     0.392698     0.067230    Uiso  ? C
   C53        1.0     0.550498     0.777229     0.068140    Uiso  ? C
   C54        1.0     0.755779     0.773079     0.056823    Uiso  ? C
   C55        1.0     0.453210     0.608473     0.063426    Uiso  ? C
   N1         1.0     0.762633     0.555383     0.052676    Uiso  ? N
   Fe1        1.0     0.650614     0.668825     0.079661    Uiso  ? Fe
   Ni1        1.0     0.554855     0.490514     0.088462    Uiso  ? Ni
   O1         1.0     0.626379     0.581896     0.156463    Uiso  ? O
   H1         1.0     0.569435     0.610148     0.185093    Uiso  ? H
