
#======================================================================
# CRYSTAL DATA
#----------------------------------------------------------------------
data_VESTA_phase_1

_chemical_name_common                  'CONTCAR\(3)                           '
_cell_length_a                         12.331300
_cell_length_b                         12.829200
_cell_length_c                         19.994400
_cell_angle_alpha                      89.996696
_cell_angle_beta                       89.998299
_cell_angle_gamma                      89.999496
_cell_volume                           3163.128245
_space_group_name_H-M_alt              'P 1'
_space_group_IT_number                 1

loop_
_space_group_symop_operation_xyz
   'x, y, z'

loop_
   _atom_site_label
   _atom_site_occupancy
   _atom_site_fract_x
   _atom_site_fract_y
   _atom_site_fract_z
   _atom_site_adp_type
   _atom_site_U_iso_or_equiv
   _atom_site_type_symbol
   C1         1.0     0.055434     0.054347     0.051483    Uiso  ? C
   C2         1.0     0.155708     0.109664     0.052065    Uiso  ? C
   C3         1.0     0.156039     0.220463     0.051283    Uiso  ? C
   C4         1.0     0.056187     0.275733     0.049511    Uiso  ? C
   C5         1.0     0.256111     0.054868     0.053838    Uiso  ? C
   C6         1.0     0.356238     0.110866     0.056935    Uiso  ? C
   C7         1.0     0.356489     0.222303     0.057338    Uiso  ? C
   C8         1.0     0.256057     0.276259     0.053074    Uiso  ? C
   C9         1.0     0.456063     0.055397     0.059895    Uiso  ? C
   C10        1.0     0.556382     0.112088     0.062064    Uiso  ? C
   C11        1.0     0.556703     0.223437     0.063600    Uiso  ? C
   C12        1.0     0.456254     0.279869     0.062520    Uiso  ? C
   C13        1.0     0.656091     0.054022     0.061011    Uiso  ? C
   C14        1.0     0.755564     0.110766     0.057733    Uiso  ? C
   C15        1.0     0.755713     0.222988     0.056992    Uiso  ? C
   C16        1.0     0.656736     0.282085     0.061833    Uiso  ? C
   C17        1.0     0.854940     0.053891     0.054841    Uiso  ? C
   C18        1.0     0.955248     0.109570     0.052322    Uiso  ? C
   C19        1.0     0.955766     0.220879     0.051179    Uiso  ? C
   C20        1.0     0.855975     0.277404     0.052682    Uiso  ? C
   C21        1.0     0.057136     0.386829     0.047474    Uiso  ? C
   C22        1.0     0.156273     0.442826     0.047692    Uiso  ? C
   C23        1.0     0.156837     0.554365     0.047041    Uiso  ? C
   C24        1.0     0.057605     0.609945     0.046074    Uiso  ? C
   C25        1.0     0.255792     0.387059     0.051048    Uiso  ? C
   C26        1.0     0.355022     0.442476     0.055146    Uiso  ? C
   C27        1.0     0.356148     0.555035     0.053013    Uiso  ? C
   C28        1.0     0.256276     0.610594     0.049129    Uiso  ? C
   C29        1.0     0.758966     0.448183     0.052996    Uiso  ? C
   C30        1.0     0.857482     0.388675     0.050198    Uiso  ? C
   C31        1.0     0.957779     0.442558     0.046996    Uiso  ? C
   C32        1.0     0.958873     0.553206     0.046087    Uiso  ? C
   C33        1.0     0.858965     0.606995     0.047386    Uiso  ? C
   C34        1.0     0.056431     0.721322     0.046925    Uiso  ? C
   C35        1.0     0.155451     0.777182     0.048467    Uiso  ? C
   C36        1.0     0.155553     0.888294     0.050255    Uiso  ? C
   C37        1.0     0.055300     0.943295     0.050658    Uiso  ? C
   C38        1.0     0.255379     0.721539     0.049843    Uiso  ? C
   C39        1.0     0.354330     0.776852     0.054323    Uiso  ? C
   C40        1.0     0.355628     0.888225     0.055622    Uiso  ? C
   C41        1.0     0.255776     0.943828     0.052922    Uiso  ? C
   C42        1.0     0.453824     0.719818     0.060205    Uiso  ? C
   C43        1.0     0.555169     0.886552     0.063698    Uiso  ? C
   C44        1.0     0.455544     0.943935     0.059836    Uiso  ? C
   C45        1.0     0.754889     0.883938     0.058669    Uiso  ? C
   C46        1.0     0.655877     0.942534     0.062019    Uiso  ? C
   C47        1.0     0.856618     0.719949     0.050614    Uiso  ? C
   C48        1.0     0.956201     0.776164     0.048895    Uiso  ? C
   C49        1.0     0.955291     0.887313     0.051155    Uiso  ? C
   C50        1.0     0.854592     0.941737     0.054732    Uiso  ? C
   C51        1.0     0.454024     0.390290     0.064632    Uiso  ? C
   C52        1.0     0.659483     0.393313     0.064261    Uiso  ? C
   C53        1.0     0.551899     0.777142     0.067109    Uiso  ? C
   C54        1.0     0.756113     0.771965     0.057685    Uiso  ? C
   C55        1.0     0.454786     0.608267     0.059660    Uiso  ? C
   N1         1.0     0.763232     0.555678     0.049198    Uiso  ? N
   Fe1        1.0     0.647639     0.664845     0.075571    Uiso  ? Fe
   Ni1        1.0     0.556326     0.490641     0.092859    Uiso  ? Ni
   O1         1.0     0.617471     0.587743     0.146417    Uiso  ? O
