
#======================================================================
# CRYSTAL DATA
#----------------------------------------------------------------------
data_VESTA_phase_1

_chemical_name_common                  'CONTCAR\(3)                           '
_cell_length_a                         12.331300
_cell_length_b                         12.829200
_cell_length_c                         19.994400
_cell_angle_alpha                      89.996696
_cell_angle_beta                       89.998299
_cell_angle_gamma                      89.999496
_cell_volume                           3163.128245
_space_group_name_H-M_alt              'P 1'
_space_group_IT_number                 1

loop_
_space_group_symop_operation_xyz
   'x, y, z'

loop_
   _atom_site_label
   _atom_site_occupancy
   _atom_site_fract_x
   _atom_site_fract_y
   _atom_site_fract_z
   _atom_site_adp_type
   _atom_site_U_iso_or_equiv
   _atom_site_type_symbol
   C1         1.0     0.055365     0.053000     0.051039    Uiso  ? C
   C2         1.0     0.155640     0.108666     0.051366    Uiso  ? C
   C3         1.0     0.156409     0.219510     0.050885    Uiso  ? C
   C4         1.0     0.056525     0.274491     0.049914    Uiso  ? C
   C5         1.0     0.256011     0.054291     0.052586    Uiso  ? C
   C6         1.0     0.356194     0.110416     0.055414    Uiso  ? C
   C7         1.0     0.356947     0.221887     0.055785    Uiso  ? C
   C8         1.0     0.256361     0.275612     0.052160    Uiso  ? C
   C9         1.0     0.455896     0.054752     0.057995    Uiso  ? C
   C10        1.0     0.556390     0.110964     0.060771    Uiso  ? C
   C11        1.0     0.557253     0.222626     0.062346    Uiso  ? C
   C12        1.0     0.457034     0.279615     0.059816    Uiso  ? C
   C13        1.0     0.655967     0.052698     0.060542    Uiso  ? C
   C14        1.0     0.755924     0.108834     0.058160    Uiso  ? C
   C15        1.0     0.756757     0.220712     0.058370    Uiso  ? C
   C16        1.0     0.658254     0.279671     0.063079    Uiso  ? C
   C17        1.0     0.854992     0.051936     0.055020    Uiso  ? C
   C18        1.0     0.955240     0.107862     0.052501    Uiso  ? C
   C19        1.0     0.956269     0.219165     0.051850    Uiso  ? C
   C20        1.0     0.856882     0.275355     0.054060    Uiso  ? C
   C21        1.0     0.057607     0.385614     0.048363    Uiso  ? C
   C22        1.0     0.156262     0.442006     0.048068    Uiso  ? C
   C23        1.0     0.156153     0.553502     0.047086    Uiso  ? C
   C24        1.0     0.056647     0.608818     0.046440    Uiso  ? C
   C25        1.0     0.255832     0.386569     0.050555    Uiso  ? C
   C26        1.0     0.354524     0.442659     0.053575    Uiso  ? C
   C27        1.0     0.355197     0.555457     0.052843    Uiso  ? C
   C28        1.0     0.255118     0.610120     0.048823    Uiso  ? C
   C29        1.0     0.761259     0.445145     0.057473    Uiso  ? C
   C30        1.0     0.859006     0.386687     0.052304    Uiso  ? C
   C31        1.0     0.958483     0.441142     0.048757    Uiso  ? C
   C32        1.0     0.958207     0.551771     0.047918    Uiso  ? C
   C33        1.0     0.858118     0.605437     0.051046    Uiso  ? C
   C34        1.0     0.055547     0.720064     0.046782    Uiso  ? C
   C35        1.0     0.154401     0.776329     0.047359    Uiso  ? C
   C36        1.0     0.154862     0.887447     0.048983    Uiso  ? C
   C37        1.0     0.054591     0.941983     0.049875    Uiso  ? C
   C38        1.0     0.253982     0.721039     0.048550    Uiso  ? C
   C39        1.0     0.352796     0.776646     0.052207    Uiso  ? C
   C40        1.0     0.354638     0.887769     0.053409    Uiso  ? C
   C41        1.0     0.255058     0.943237     0.051337    Uiso  ? C
   C42        1.0     0.451316     0.719863     0.058936    Uiso  ? C
   C43        1.0     0.554242     0.886046     0.061885    Uiso  ? C
   C44        1.0     0.454929     0.943337     0.057625    Uiso  ? C
   C45        1.0     0.754235     0.881816     0.058222    Uiso  ? C
   C46        1.0     0.655380     0.941037     0.061136    Uiso  ? C
   C47        1.0     0.856032     0.718135     0.051891    Uiso  ? C
   C48        1.0     0.955152     0.774537     0.048999    Uiso  ? C
   C49        1.0     0.954674     0.885728     0.050735    Uiso  ? C
   C50        1.0     0.853971     0.939685     0.054586    Uiso  ? C
   C51        1.0     0.454494     0.390495     0.059608    Uiso  ? C
   C52        1.0     0.661422     0.390349     0.066624    Uiso  ? C
   C53        1.0     0.550375     0.776323     0.065300    Uiso  ? C
   C54        1.0     0.754366     0.769074     0.057625    Uiso  ? C
   C55        1.0     0.454745     0.608419     0.059888    Uiso  ? C
   N1         1.0     0.762507     0.553646     0.056455    Uiso  ? N
   Fe1        1.0     0.643266     0.665022     0.070093    Uiso  ? Fe
   Ni1        1.0     0.559613     0.492359     0.075038    Uiso  ? Ni
   H1         1.0     0.639930     0.659537     0.149675    Uiso  ? H
   H2         1.0     0.614793     0.592239     0.137836    Uiso  ? H
