
#======================================================================
# CRYSTAL DATA
#----------------------------------------------------------------------
data_VESTA_phase_1

_chemical_name_common                  'CONTCAR\(3)                           '
_cell_length_a                         12.331300
_cell_length_b                         12.829200
_cell_length_c                         19.994400
_cell_angle_alpha                      89.996696
_cell_angle_beta                       89.998299
_cell_angle_gamma                      89.999496
_cell_volume                           3163.128245
_space_group_name_H-M_alt              'P 1'
_space_group_IT_number                 1

loop_
_space_group_symop_operation_xyz
   'x, y, z'

loop_
   _atom_site_label
   _atom_site_occupancy
   _atom_site_fract_x
   _atom_site_fract_y
   _atom_site_fract_z
   _atom_site_adp_type
   _atom_site_U_iso_or_equiv
   _atom_site_type_symbol
   C1         1.0     0.055485     0.052487     0.045471    Uiso  ? C
   C2         1.0     0.155808     0.107598     0.045545    Uiso  ? C
   C3         1.0     0.155907     0.218578     0.045054    Uiso  ? C
   C4         1.0     0.055942     0.274159     0.044676    Uiso  ? C
   C5         1.0     0.256214     0.052452     0.047252    Uiso  ? C
   C6         1.0     0.356232     0.108471     0.049452    Uiso  ? C
   C7         1.0     0.356319     0.219875     0.049350    Uiso  ? C
   C8         1.0     0.255922     0.274303     0.046439    Uiso  ? C
   C9         1.0     0.456144     0.053038     0.052520    Uiso  ? C
   C10        1.0     0.556232     0.109874     0.054614    Uiso  ? C
   C11        1.0     0.556500     0.221011     0.056051    Uiso  ? C
   C12        1.0     0.456207     0.277019     0.053934    Uiso  ? C
   C13        1.0     0.656098     0.052513     0.054461    Uiso  ? C
   C14        1.0     0.755544     0.109242     0.051778    Uiso  ? C
   C15        1.0     0.755501     0.221308     0.052022    Uiso  ? C
   C16        1.0     0.656217     0.279856     0.056691    Uiso  ? C
   C17        1.0     0.855120     0.052620     0.048900    Uiso  ? C
   C18        1.0     0.955322     0.108138     0.046419    Uiso  ? C
   C19        1.0     0.955488     0.219490     0.046119    Uiso  ? C
   C20        1.0     0.855541     0.276001     0.048759    Uiso  ? C
   C21        1.0     0.056593     0.385332     0.044367    Uiso  ? C
   C22        1.0     0.155861     0.441133     0.044892    Uiso  ? C
   C23        1.0     0.156572     0.552601     0.045345    Uiso  ? C
   C24        1.0     0.056868     0.608109     0.044567    Uiso  ? C
   C25        1.0     0.255563     0.385255     0.046490    Uiso  ? C
   C26        1.0     0.354804     0.440731     0.050887    Uiso  ? C
   C27        1.0     0.356501     0.553078     0.053124    Uiso  ? C
   C28        1.0     0.256276     0.608498     0.048417    Uiso  ? C
   C29        1.0     0.757672     0.446601     0.054776    Uiso  ? C
   C30        1.0     0.856428     0.387432     0.048900    Uiso  ? C
   C31        1.0     0.956910     0.441117     0.045733    Uiso  ? C
   C32        1.0     0.957690     0.551690     0.045630    Uiso  ? C
   C33        1.0     0.857265     0.605267     0.049441    Uiso  ? C
   C34        1.0     0.056349     0.719312     0.044967    Uiso  ? C
   C35        1.0     0.155724     0.774939     0.046136    Uiso  ? C
   C36        1.0     0.155784     0.886070     0.046173    Uiso  ? C
   C37        1.0     0.055433     0.941329     0.045598    Uiso  ? C
   C38        1.0     0.255870     0.719270     0.048736    Uiso  ? C
   C39        1.0     0.355597     0.773932     0.052437    Uiso  ? C
   C40        1.0     0.356219     0.885402     0.051086    Uiso  ? C
   C41        1.0     0.256104     0.941271     0.047785    Uiso  ? C
   C42        1.0     0.455795     0.716365     0.059322    Uiso  ? C
   C43        1.0     0.555704     0.884594     0.057694    Uiso  ? C
   C44        1.0     0.455861     0.941554     0.053576    Uiso  ? C
   C45        1.0     0.755232     0.883608     0.053533    Uiso  ? C
   C46        1.0     0.655988     0.941299     0.056046    Uiso  ? C
   C47        1.0     0.856215     0.718192     0.049098    Uiso  ? C
   C48        1.0     0.955923     0.774254     0.046021    Uiso  ? C
   C49        1.0     0.955383     0.885576     0.046509    Uiso  ? C
   C50        1.0     0.855041     0.940693     0.049123    Uiso  ? C
   C51        1.0     0.453664     0.387086     0.056635    Uiso  ? C
   C52        1.0     0.657888     0.390689     0.062154    Uiso  ? C
   C53        1.0     0.553737     0.775261     0.062737    Uiso  ? C
   C54        1.0     0.756800     0.772477     0.055074    Uiso  ? C
   C55        1.0     0.455797     0.604752     0.062564    Uiso  ? C
   N1         1.0     0.761185     0.554525     0.055640    Uiso  ? N
   Fe1        1.0     0.655249     0.673307     0.088931    Uiso  ? Fe
   Ni1        1.0     0.550886     0.480012     0.095630    Uiso  ? Ni
   O1         1.0     0.568010     0.522751     0.179255    Uiso  ? O
   O2         1.0     0.686695     0.691110     0.179353    Uiso  ? O
   H1         1.0     0.703468     0.761666     0.193885    Uiso  ? H
   H2         1.0     0.596052     0.591107     0.194366    Uiso  ? H
