
#======================================================================
# CRYSTAL DATA
#----------------------------------------------------------------------
data_VESTA_phase_1

_chemical_name_common                  'CONTCAR\(3)                           '
_cell_length_a                         12.331300
_cell_length_b                         12.829200
_cell_length_c                         19.994400
_cell_angle_alpha                      89.996696
_cell_angle_beta                       89.998299
_cell_angle_gamma                      89.999496
_cell_volume                           3163.128245
_space_group_name_H-M_alt              'P 1'
_space_group_IT_number                 1

loop_
_space_group_symop_operation_xyz
   'x, y, z'

loop_
   _atom_site_label
   _atom_site_occupancy
   _atom_site_fract_x
   _atom_site_fract_y
   _atom_site_fract_z
   _atom_site_adp_type
   _atom_site_U_iso_or_equiv
   _atom_site_type_symbol
   C1         1.0     0.055562     0.054134     0.047270    Uiso  ? C
   C2         1.0     0.155810     0.109571     0.047811    Uiso  ? C
   C3         1.0     0.156303     0.220370     0.047427    Uiso  ? C
   C4         1.0     0.056415     0.275471     0.045903    Uiso  ? C
   C5         1.0     0.256035     0.054978     0.049774    Uiso  ? C
   C6         1.0     0.356187     0.110955     0.053128    Uiso  ? C
   C7         1.0     0.356734     0.222306     0.053979    Uiso  ? C
   C8         1.0     0.256184     0.276256     0.050066    Uiso  ? C
   C9         1.0     0.455857     0.055297     0.056560    Uiso  ? C
   C10        1.0     0.556190     0.111668     0.059114    Uiso  ? C
   C11        1.0     0.556838     0.223005     0.061192    Uiso  ? C
   C12        1.0     0.456585     0.279743     0.059760    Uiso  ? C
   C13        1.0     0.655902     0.053618     0.058294    Uiso  ? C
   C14        1.0     0.755693     0.110159     0.054524    Uiso  ? C
   C15        1.0     0.756116     0.221960     0.054281    Uiso  ? C
   C16        1.0     0.657329     0.280841     0.060775    Uiso  ? C
   C17        1.0     0.855220     0.053765     0.051190    Uiso  ? C
   C18        1.0     0.955419     0.109276     0.048229    Uiso  ? C
   C19        1.0     0.955985     0.220403     0.047323    Uiso  ? C
   C20        1.0     0.856333     0.276417     0.049602    Uiso  ? C
   C21        1.0     0.057268     0.386461     0.044940    Uiso  ? C
   C22        1.0     0.156139     0.442732     0.046509    Uiso  ? C
   C23        1.0     0.156331     0.554277     0.046252    Uiso  ? C
   C24        1.0     0.057226     0.609734     0.044338    Uiso  ? C
   C25        1.0     0.255641     0.387130     0.049944    Uiso  ? C
   C26        1.0     0.354359     0.443004     0.055840    Uiso  ? C
   C27        1.0     0.354622     0.555400     0.056689    Uiso  ? C
   C28        1.0     0.255178     0.610593     0.049919    Uiso  ? C
   C29        1.0     0.759887     0.446411     0.054277    Uiso  ? C
   C30        1.0     0.857881     0.387650     0.048206    Uiso  ? C
   C31        1.0     0.957835     0.441951     0.044983    Uiso  ? C
   C32        1.0     0.958759     0.552615     0.044751    Uiso  ? C
   C33        1.0     0.858970     0.605892     0.047801    Uiso  ? C
   C34        1.0     0.056167     0.720933     0.044722    Uiso  ? C
   C35        1.0     0.154890     0.777057     0.045901    Uiso  ? C
   C36        1.0     0.155338     0.888305     0.046643    Uiso  ? C
   C37        1.0     0.055169     0.943228     0.046777    Uiso  ? C
   C38        1.0     0.254227     0.721522     0.048810    Uiso  ? C
   C39        1.0     0.352932     0.777081     0.052820    Uiso  ? C
   C40        1.0     0.354985     0.888248     0.052567    Uiso  ? C
   C41        1.0     0.255360     0.943920     0.049182    Uiso  ? C
   C42        1.0     0.450926     0.720009     0.062434    Uiso  ? C
   C43        1.0     0.554342     0.886512     0.062151    Uiso  ? C
   C44        1.0     0.454966     0.943844     0.057054    Uiso  ? C
   C45        1.0     0.755291     0.884639     0.057099    Uiso  ? C
   C46        1.0     0.655472     0.942306     0.060241    Uiso  ? C
   C47        1.0     0.857251     0.719622     0.049187    Uiso  ? C
   C48        1.0     0.956132     0.775893     0.046467    Uiso  ? C
   C49        1.0     0.955202     0.887203     0.047955    Uiso  ? C
   C50        1.0     0.854917     0.941931     0.051671    Uiso  ? C
   C51        1.0     0.453924     0.390268     0.063175    Uiso  ? C
   C52        1.0     0.660260     0.391262     0.066465    Uiso  ? C
   C53        1.0     0.549430     0.777178     0.067443    Uiso  ? C
   C54        1.0     0.757706     0.773422     0.057755    Uiso  ? C
   C55        1.0     0.452840     0.608004     0.067509    Uiso  ? C
   N1         1.0     0.763804     0.553686     0.052527    Uiso  ? N
   Fe1        1.0     0.651634     0.671718     0.077245    Uiso  ? Fe
   Ni1        1.0     0.555653     0.485402     0.094710    Uiso  ? Ni
   O1         1.0     0.616317     0.550745     0.169201    Uiso  ? O
   O2         1.0     0.642542     0.657250     0.165607    Uiso  ? O
