
#======================================================================
# CRYSTAL DATA
#----------------------------------------------------------------------
data_VESTA_phase_1

_chemical_name_common                  'POSCAR\(2)                            '
_cell_length_a                         12.331300
_cell_length_b                         12.829200
_cell_length_c                         19.994400
_cell_angle_alpha                      89.996696
_cell_angle_beta                       89.998299
_cell_angle_gamma                      89.999496
_cell_volume                           3163.128245
_space_group_name_H-M_alt              'P 1'
_space_group_IT_number                 1

loop_
_space_group_symop_operation_xyz
   'x, y, z'

loop_
   _atom_site_label
   _atom_site_occupancy
   _atom_site_fract_x
   _atom_site_fract_y
   _atom_site_fract_z
   _atom_site_adp_type
   _atom_site_U_iso_or_equiv
   _atom_site_type_symbol
   C1         1.0     0.055903     0.054103     0.055808    Uiso  ? C
   C2         1.0     0.155975     0.110177     0.055823    Uiso  ? C
   C3         1.0     0.156946     0.221068     0.055862    Uiso  ? C
   C4         1.0     0.057214     0.275823     0.055816    Uiso  ? C
   C5         1.0     0.256097     0.055844     0.055732    Uiso  ? C
   C6         1.0     0.356344     0.112099     0.055693    Uiso  ? C
   C7         1.0     0.357417     0.223509     0.055654    Uiso  ? C
   C8         1.0     0.256949     0.277372     0.055801    Uiso  ? C
   C9         1.0     0.455773     0.056425     0.055838    Uiso  ? C
   C10        1.0     0.556557     0.111983     0.055791    Uiso  ? C
   C11        1.0     0.557585     0.222822     0.055679    Uiso  ? C
   C12        1.0     0.458031     0.280725     0.055599    Uiso  ? C
   C13        1.0     0.656358     0.053936     0.055655    Uiso  ? C
   C14        1.0     0.756707     0.109410     0.055468    Uiso  ? C
   C15        1.0     0.757851     0.220738     0.055444    Uiso  ? C
   C16        1.0     0.658976     0.278704     0.055637    Uiso  ? C
   C17        1.0     0.855704     0.052761     0.055570    Uiso  ? C
   C18        1.0     0.955990     0.108872     0.055737    Uiso  ? C
   C19        1.0     0.957249     0.220094     0.055681    Uiso  ? C
   C20        1.0     0.857794     0.275860     0.055458    Uiso  ? C
   C21        1.0     0.058218     0.387055     0.055854    Uiso  ? C
   C22        1.0     0.156943     0.443567     0.055928    Uiso  ? C
   C23        1.0     0.156631     0.555059     0.055872    Uiso  ? C
   C24        1.0     0.056684     0.610037     0.055979    Uiso  ? C
   C25        1.0     0.256741     0.388406     0.055844    Uiso  ? C
   C26        1.0     0.356074     0.444410     0.055743    Uiso  ? C
   C27        1.0     0.357199     0.557529     0.055931    Uiso  ? C
   C28        1.0     0.256201     0.611521     0.055676    Uiso  ? C
   C29        1.0     0.761145     0.444345     0.055375    Uiso  ? C
   C30        1.0     0.859797     0.387078     0.055363    Uiso  ? C
   C31        1.0     0.958936     0.442186     0.055698    Uiso  ? C
   C32        1.0     0.957683     0.553032     0.055885    Uiso  ? C
   C33        1.0     0.856784     0.606118     0.055409    Uiso  ? C
   C34        1.0     0.055518     0.721235     0.055974    Uiso  ? C
   C35        1.0     0.154325     0.777527     0.055703    Uiso  ? C
   C36        1.0     0.154963     0.888627     0.055687    Uiso  ? C
   C37        1.0     0.054905     0.943061     0.055762    Uiso  ? C
   C38        1.0     0.254068     0.722530     0.055441    Uiso  ? C
   C39        1.0     0.352499     0.778638     0.055466    Uiso  ? C
   C40        1.0     0.354474     0.889603     0.055684    Uiso  ? C
   C41        1.0     0.254912     0.944855     0.055652    Uiso  ? C
   C42        1.0     0.452052     0.722379     0.056834    Uiso  ? C
   C43        1.0     0.554084     0.888867     0.056572    Uiso  ? C
   C44        1.0     0.454544     0.945512     0.056113    Uiso  ? C
   C45        1.0     0.754191     0.883420     0.054996    Uiso  ? C
   C46        1.0     0.655586     0.943045     0.055696    Uiso  ? C
   C47        1.0     0.855360     0.719138     0.055224    Uiso  ? C
   C48        1.0     0.955166     0.775408     0.055857    Uiso  ? C
   C49        1.0     0.954916     0.886593     0.055693    Uiso  ? C
   C50        1.0     0.854429     0.940795     0.055438    Uiso  ? C
   C51        1.0     0.455736     0.391490     0.055720    Uiso  ? C
   C52        1.0     0.661919     0.388074     0.055975    Uiso  ? C
   C53        1.0     0.549952     0.780338     0.057366    Uiso  ? C
   C54        1.0     0.754321     0.771225     0.054236    Uiso  ? C
   C55        1.0     0.457763     0.610763     0.056978    Uiso  ? C
   N1         1.0     0.760507     0.553416     0.055094    Uiso  ? N
   Fe1        1.0     0.639941     0.667798     0.053427    Uiso  ? Fe
   Ni1        1.0     0.564787     0.491592     0.056829    Uiso  ? Ni
