
#======================================================================
# CRYSTAL DATA
#----------------------------------------------------------------------
data_VESTA_phase_1

_chemical_name_common                  '12456                                 '
_cell_length_a                         12.331300
_cell_length_b                         12.829200
_cell_length_c                         19.994400
_cell_angle_alpha                      89.996696
_cell_angle_beta                       89.998299
_cell_angle_gamma                      89.999496
_cell_volume                           3163.128245
_space_group_name_H-M_alt              'P 1'
_space_group_IT_number                 1

loop_
_space_group_symop_operation_xyz
   'x, y, z'

loop_
   _atom_site_label
   _atom_site_occupancy
   _atom_site_fract_x
   _atom_site_fract_y
   _atom_site_fract_z
   _atom_site_adp_type
   _atom_site_U_iso_or_equiv
   _atom_site_type_symbol
   C1         1.0     0.056021     0.054385     0.051445    Uiso  ? C
   C2         1.0     0.156587     0.109666     0.051301    Uiso  ? C
   C3         1.0     0.156060     0.220448     0.049758    Uiso  ? C
   C4         1.0     0.055913     0.276024     0.048696    Uiso  ? C
   C5         1.0     0.257352     0.054850     0.053260    Uiso  ? C
   C6         1.0     0.357636     0.110892     0.056214    Uiso  ? C
   C7         1.0     0.356654     0.222930     0.055209    Uiso  ? C
   C8         1.0     0.255658     0.276264     0.050517    Uiso  ? C
   C9         1.0     0.457985     0.055116     0.059993    Uiso  ? C
   C10        1.0     0.557355     0.113790     0.062569    Uiso  ? C
   C11        1.0     0.557424     0.228827     0.063258    Uiso  ? C
   C12        1.0     0.454863     0.283573     0.059592    Uiso  ? C
   C13        1.0     0.655919     0.053412     0.062541    Uiso  ? C
   C14        1.0     0.755103     0.110998     0.059593    Uiso  ? C
   C15        1.0     0.755854     0.223769     0.059469    Uiso  ? C
   C16        1.0     0.658838     0.285765     0.063776    Uiso  ? C
   C17        1.0     0.855037     0.054257     0.056134    Uiso  ? C
   C18        1.0     0.955573     0.109459     0.053034    Uiso  ? C
   C19        1.0     0.955944     0.220902     0.051939    Uiso  ? C
   C20        1.0     0.856707     0.277515     0.054759    Uiso  ? C
   C21        1.0     0.056195     0.386996     0.045995    Uiso  ? C
   C22        1.0     0.155067     0.443114     0.044757    Uiso  ? C
   C23        1.0     0.155012     0.553986     0.043999    Uiso  ? C
   C24        1.0     0.056421     0.610581     0.043881    Uiso  ? C
   C25        1.0     0.254033     0.387294     0.047905    Uiso  ? C
   C26        1.0     0.352580     0.442154     0.052045    Uiso  ? C
   C27        1.0     0.352325     0.554754     0.052372    Uiso  ? C
   C28        1.0     0.253647     0.609869     0.047264    Uiso  ? C
   C29        1.0     0.760920     0.447308     0.057926    Uiso  ? C
   C30        1.0     0.858610     0.388643     0.052600    Uiso  ? C
   C31        1.0     0.957556     0.443373     0.047096    Uiso  ? C
   C32        1.0     0.957648     0.554664     0.045696    Uiso  ? C
   C33        1.0     0.858105     0.608474     0.049417    Uiso  ? C
   C34        1.0     0.056240     0.721319     0.045244    Uiso  ? C
   C35        1.0     0.155485     0.777376     0.047201    Uiso  ? C
   C36        1.0     0.156640     0.888223     0.049721    Uiso  ? C
   C37        1.0     0.056255     0.943513     0.050493    Uiso  ? C
   C38        1.0     0.254239     0.721141     0.049146    Uiso  ? C
   C39        1.0     0.353965     0.774869     0.055085    Uiso  ? C
   C40        1.0     0.356825     0.886845     0.056067    Uiso  ? C
   C41        1.0     0.257162     0.943177     0.052788    Uiso  ? C
   C42        1.0     0.451160     0.714626     0.061200    Uiso  ? C
   C43        1.0     0.555650     0.881460     0.064577    Uiso  ? C
   C44        1.0     0.457500     0.942185     0.060245    Uiso  ? C
   C45        1.0     0.757253     0.882709     0.060561    Uiso  ? C
   C46        1.0     0.656014     0.939049     0.063735    Uiso  ? C
   C47        1.0     0.857658     0.721552     0.051488    Uiso  ? C
   C48        1.0     0.956702     0.776616     0.048274    Uiso  ? C
   C49        1.0     0.956356     0.888009     0.051303    Uiso  ? C
   C50        1.0     0.855729     0.942133     0.055762    Uiso  ? C
   C51        1.0     0.550995     0.769080     0.068526    Uiso  ? C
   N1         1.0     0.449188     0.390997     0.059427    Uiso  ? N
   N2         1.0     0.664602     0.395280     0.066254    Uiso  ? N
   N3         1.0     0.762375     0.554898     0.054607    Uiso  ? N
   N4         1.0     0.760904     0.774170     0.060730    Uiso  ? N
   N5         1.0     0.448044     0.605948     0.060209    Uiso  ? N
   Fe1        1.0     0.657801     0.669017     0.086854    Uiso  ? Fe
   Ni1        1.0     0.552164     0.496340     0.080992    Uiso  ? Ni
   O1         1.0     0.612184     0.583421     0.144250    Uiso  ? O
