
#======================================================================
# CRYSTAL DATA
#----------------------------------------------------------------------
data_VESTA_phase_1

_chemical_name_common                  'POSCAR\(2)\(2)                        '
_cell_length_a                         12.331300
_cell_length_b                         12.829200
_cell_length_c                         19.994400
_cell_angle_alpha                      89.996696
_cell_angle_beta                       89.998299
_cell_angle_gamma                      89.999496
_cell_volume                           3163.128245
_space_group_name_H-M_alt              'P 1'
_space_group_IT_number                 1

loop_
_space_group_symop_operation_xyz
   'x, y, z'

loop_
   _atom_site_label
   _atom_site_occupancy
   _atom_site_fract_x
   _atom_site_fract_y
   _atom_site_fract_z
   _atom_site_adp_type
   _atom_site_U_iso_or_equiv
   _atom_site_type_symbol
   C1         1.0     0.055099     0.051205     0.047044    Uiso  ? C
   C2         1.0     0.155669     0.106228     0.046457    Uiso  ? C
   C3         1.0     0.154708     0.217119     0.044744    Uiso  ? C
   C4         1.0     0.054507     0.273113     0.044912    Uiso  ? C
   C5         1.0     0.256540     0.051067     0.048374    Uiso  ? C
   C6         1.0     0.356760     0.107150     0.051522    Uiso  ? C
   C7         1.0     0.355414     0.219208     0.049821    Uiso  ? C
   C8         1.0     0.254377     0.272725     0.044561    Uiso  ? C
   C9         1.0     0.457078     0.051207     0.056565    Uiso  ? C
   C10        1.0     0.556173     0.110129     0.060108    Uiso  ? C
   C11        1.0     0.556135     0.224859     0.060117    Uiso  ? C
   C12        1.0     0.453656     0.279757     0.054384    Uiso  ? C
   C13        1.0     0.654913     0.050150     0.061340    Uiso  ? C
   C14        1.0     0.754240     0.107739     0.058033    Uiso  ? C
   C15        1.0     0.754769     0.220211     0.058728    Uiso  ? C
   C16        1.0     0.657399     0.281534     0.062807    Uiso  ? C
   C17        1.0     0.854387     0.051621     0.053258    Uiso  ? C
   C18        1.0     0.954701     0.106731     0.049668    Uiso  ? C
   C19        1.0     0.954616     0.218165     0.049310    Uiso  ? C
   C20        1.0     0.855267     0.274590     0.053912    Uiso  ? C
   C21        1.0     0.054146     0.384120     0.042322    Uiso  ? C
   C22        1.0     0.153224     0.439870     0.039378    Uiso  ? C
   C23        1.0     0.153258     0.550777     0.038921    Uiso  ? C
   C24        1.0     0.054297     0.607384     0.039599    Uiso  ? C
   C25        1.0     0.252385     0.383781     0.041304    Uiso  ? C
   C26        1.0     0.350916     0.438593     0.045590    Uiso  ? C
   C27        1.0     0.351111     0.550855     0.048212    Uiso  ? C
   C28        1.0     0.252626     0.606241     0.042466    Uiso  ? C
   C29        1.0     0.758280     0.444546     0.059460    Uiso  ? C
   C30        1.0     0.856336     0.386002     0.052752    Uiso  ? C
   C31        1.0     0.955203     0.440587     0.045344    Uiso  ? C
   C32        1.0     0.954669     0.551938     0.043322    Uiso  ? C
   C33        1.0     0.854533     0.605666     0.049088    Uiso  ? C
   C34        1.0     0.055244     0.718120     0.040558    Uiso  ? C
   C35        1.0     0.155224     0.773807     0.042455    Uiso  ? C
   C36        1.0     0.156016     0.884752     0.044938    Uiso  ? C
   C37        1.0     0.055635     0.940313     0.045776    Uiso  ? C
   C38        1.0     0.254242     0.717557     0.044726    Uiso  ? C
   C39        1.0     0.354889     0.770514     0.051508    Uiso  ? C
   C40        1.0     0.356609     0.882629     0.052382    Uiso  ? C
   C41        1.0     0.256657     0.939315     0.048198    Uiso  ? C
   C42        1.0     0.452329     0.709478     0.060361    Uiso  ? C
   C43        1.0     0.555048     0.877400     0.064609    Uiso  ? C
   C44        1.0     0.456842     0.938195     0.057697    Uiso  ? C
   C45        1.0     0.757277     0.881141     0.058748    Uiso  ? C
   C46        1.0     0.655374     0.936278     0.063578    Uiso  ? C
   C47        1.0     0.856110     0.719096     0.049341    Uiso  ? C
   C48        1.0     0.955736     0.773584     0.043953    Uiso  ? C
   C49        1.0     0.955600     0.885007     0.046829    Uiso  ? C
   C50        1.0     0.855525     0.939844     0.052037    Uiso  ? C
   C51        1.0     0.550932     0.765157     0.070464    Uiso  ? C
   N1         1.0     0.447491     0.386932     0.053415    Uiso  ? N
   N2         1.0     0.662362     0.390484     0.066709    Uiso  ? N
   N3         1.0     0.757949     0.552551     0.056941    Uiso  ? N
   N4         1.0     0.761459     0.773695     0.060813    Uiso  ? N
   N5         1.0     0.447589     0.600071     0.059133    Uiso  ? N
   Fe1        1.0     0.665420     0.681346     0.105924    Uiso  ? Fe
   Ni1        1.0     0.548375     0.487764     0.080065    Uiso  ? Ni
   O1         1.0     0.607652     0.567913     0.152041    Uiso  ? O
   O2         1.0     0.669744     0.753531     0.182923    Uiso  ? O
   H1         1.0     0.674227     0.828871     0.175603    Uiso  ? H
   H2         1.0     0.550693     0.589586     0.183031    Uiso  ? H
