
#======================================================================
# CRYSTAL DATA
#----------------------------------------------------------------------
data_VESTA_phase_1

_chemical_name_common                  'CONTCAR\(5)                           '
_cell_length_a                         12.331300
_cell_length_b                         12.829200
_cell_length_c                         19.994400
_cell_angle_alpha                      89.996696
_cell_angle_beta                       89.998299
_cell_angle_gamma                      89.999496
_cell_volume                           3163.128245
_space_group_name_H-M_alt              'P 1'
_space_group_IT_number                 1

loop_
_space_group_symop_operation_xyz
   'x, y, z'

loop_
   _atom_site_label
   _atom_site_occupancy
   _atom_site_fract_x
   _atom_site_fract_y
   _atom_site_fract_z
   _atom_site_adp_type
   _atom_site_U_iso_or_equiv
   _atom_site_type_symbol
   C1         1.0     0.056147     0.054887     0.049201    Uiso  ? C
   C2         1.0     0.156278     0.110197     0.049585    Uiso  ? C
   C3         1.0     0.156120     0.220977     0.047837    Uiso  ? C
   C4         1.0     0.056467     0.276456     0.046093    Uiso  ? C
   C5         1.0     0.256883     0.055841     0.052323    Uiso  ? C
   C6         1.0     0.356870     0.112530     0.055481    Uiso  ? C
   C7         1.0     0.356562     0.224444     0.054364    Uiso  ? C
   C8         1.0     0.255434     0.276910     0.049256    Uiso  ? C
   C9         1.0     0.456541     0.057394     0.059767    Uiso  ? C
   C10        1.0     0.556005     0.115628     0.061764    Uiso  ? C
   C11        1.0     0.556326     0.228719     0.062311    Uiso  ? C
   C12        1.0     0.454850     0.284454     0.058892    Uiso  ? C
   C13        1.0     0.655428     0.056103     0.060872    Uiso  ? C
   C14        1.0     0.755653     0.111638     0.056477    Uiso  ? C
   C15        1.0     0.756917     0.223403     0.056028    Uiso  ? C
   C16        1.0     0.659269     0.284058     0.061795    Uiso  ? C
   C17        1.0     0.855213     0.054994     0.052950    Uiso  ? C
   C18        1.0     0.955868     0.110028     0.049963    Uiso  ? C
   C19        1.0     0.956708     0.220925     0.048577    Uiso  ? C
   C20        1.0     0.857348     0.277108     0.051010    Uiso  ? C
   C21        1.0     0.056663     0.387674     0.043803    Uiso  ? C
   C22        1.0     0.155073     0.443803     0.043786    Uiso  ? C
   C23        1.0     0.155250     0.555255     0.043607    Uiso  ? C
   C24        1.0     0.056165     0.610785     0.043148    Uiso  ? C
   C25        1.0     0.254042     0.387349     0.047130    Uiso  ? C
   C26        1.0     0.352061     0.442184     0.052203    Uiso  ? C
   C27        1.0     0.353123     0.554480     0.053831    Uiso  ? C
   C28        1.0     0.254445     0.610848     0.047713    Uiso  ? C
   C29        1.0     0.759835     0.444024     0.054557    Uiso  ? C
   C30        1.0     0.858618     0.387827     0.048972    Uiso  ? C
   C31        1.0     0.957374     0.443570     0.044388    Uiso  ? C
   C32        1.0     0.957318     0.554252     0.043787    Uiso  ? C
   C33        1.0     0.856794     0.608432     0.046581    Uiso  ? C
   C34        1.0     0.056335     0.722377     0.044793    Uiso  ? C
   C35        1.0     0.155652     0.777717     0.047146    Uiso  ? C
   C36        1.0     0.156146     0.889033     0.049023    Uiso  ? C
   C37        1.0     0.055923     0.944029     0.048760    Uiso  ? C
   C38        1.0     0.255361     0.721762     0.049671    Uiso  ? C
   C39        1.0     0.354998     0.776369     0.056176    Uiso  ? C
   C40        1.0     0.356289     0.888527     0.056674    Uiso  ? C
   C41        1.0     0.256464     0.944459     0.052346    Uiso  ? C
   C42        1.0     0.453786     0.718211     0.064849    Uiso  ? C
   C43        1.0     0.554881     0.886912     0.066349    Uiso  ? C
   C44        1.0     0.455826     0.944956     0.061231    Uiso  ? C
   C45        1.0     0.754940     0.886200     0.057746    Uiso  ? C
   C46        1.0     0.655385     0.944136     0.062720    Uiso  ? C
   C47        1.0     0.857007     0.721971     0.048767    Uiso  ? C
   C48        1.0     0.956331     0.777774     0.046834    Uiso  ? C
   C49        1.0     0.955579     0.888695     0.049126    Uiso  ? C
   C50        1.0     0.854855     0.943269     0.052859    Uiso  ? C
   C51        1.0     0.757984     0.554892     0.051772    Uiso  ? C
   C52        1.0     0.551812     0.777042     0.072433    Uiso  ? C
   C53        1.0     0.757330     0.774586     0.056917    Uiso  ? C
   C54        1.0     0.452068     0.605074     0.065148    Uiso  ? C
   N1         1.0     0.449277     0.392873     0.058930    Uiso  ? N
   N2         1.0     0.664303     0.390178     0.064568    Uiso  ? N
   Fe1        1.0     0.655334     0.668658     0.084802    Uiso  ? Fe
   Ni1        1.0     0.556224     0.495830     0.078995    Uiso  ? Ni
   O1         1.0     0.616627     0.576377     0.156955    Uiso  ? O
   H1         1.0     0.555082     0.603986     0.182092    Uiso  ? H
