
#======================================================================
# CRYSTAL DATA
#----------------------------------------------------------------------
data_VESTA_phase_1

_chemical_name_common                  'CONTCAR\(5)                           '
_cell_length_a                         12.331300
_cell_length_b                         12.829200
_cell_length_c                         19.994400
_cell_angle_alpha                      89.996696
_cell_angle_beta                       89.998299
_cell_angle_gamma                      89.999496
_cell_volume                           3163.128245
_space_group_name_H-M_alt              'P 1'
_space_group_IT_number                 1

loop_
_space_group_symop_operation_xyz
   'x, y, z'

loop_
   _atom_site_label
   _atom_site_occupancy
   _atom_site_fract_x
   _atom_site_fract_y
   _atom_site_fract_z
   _atom_site_adp_type
   _atom_site_U_iso_or_equiv
   _atom_site_type_symbol
   C1         1.0     0.055527     0.053282     0.053991    Uiso  ? C
   C2         1.0     0.155641     0.108777     0.053352    Uiso  ? C
   C3         1.0     0.155711     0.219718     0.052490    Uiso  ? C
   C4         1.0     0.056113     0.275243     0.052164    Uiso  ? C
   C5         1.0     0.256257     0.054447     0.053818    Uiso  ? C
   C6         1.0     0.356245     0.111256     0.054772    Uiso  ? C
   C7         1.0     0.356001     0.222878     0.054455    Uiso  ? C
   C8         1.0     0.254947     0.275718     0.052585    Uiso  ? C
   C9         1.0     0.456264     0.056506     0.056078    Uiso  ? C
   C10        1.0     0.555919     0.114238     0.057918    Uiso  ? C
   C11        1.0     0.556095     0.227263     0.058765    Uiso  ? C
   C12        1.0     0.454612     0.282450     0.056187    Uiso  ? C
   C13        1.0     0.655376     0.055034     0.058414    Uiso  ? C
   C14        1.0     0.755644     0.110480     0.057637    Uiso  ? C
   C15        1.0     0.756885     0.222214     0.057619    Uiso  ? C
   C16        1.0     0.658824     0.282742     0.060297    Uiso  ? C
   C17        1.0     0.854607     0.052838     0.056314    Uiso  ? C
   C18        1.0     0.955129     0.108346     0.054615    Uiso  ? C
   C19        1.0     0.956239     0.219627     0.053679    Uiso  ? C
   C20        1.0     0.857190     0.276364     0.055011    Uiso  ? C
   C21        1.0     0.056687     0.386548     0.051163    Uiso  ? C
   C22        1.0     0.155110     0.442768     0.050709    Uiso  ? C
   C23        1.0     0.155569     0.554126     0.050771    Uiso  ? C
   C24        1.0     0.056068     0.609634     0.051463    Uiso  ? C
   C25        1.0     0.254015     0.386386     0.051525    Uiso  ? C
   C26        1.0     0.352616     0.440936     0.052659    Uiso  ? C
   C27        1.0     0.354925     0.553501     0.052644    Uiso  ? C
   C28        1.0     0.255036     0.609481     0.051536    Uiso  ? C
   C29        1.0     0.760349     0.444114     0.057956    Uiso  ? C
   C30        1.0     0.858871     0.387407     0.054064    Uiso  ? C
   C31        1.0     0.957759     0.442615     0.051777    Uiso  ? C
   C32        1.0     0.957176     0.553217     0.052068    Uiso  ? C
   C33        1.0     0.856864     0.607821     0.054468    Uiso  ? C
   C34        1.0     0.055736     0.720932     0.052405    Uiso  ? C
   C35        1.0     0.155258     0.776247     0.052627    Uiso  ? C
   C36        1.0     0.155637     0.887484     0.053350    Uiso  ? C
   C37        1.0     0.055121     0.942375     0.054117    Uiso  ? C
   C38        1.0     0.255481     0.720438     0.052565    Uiso  ? C
   C39        1.0     0.355390     0.775515     0.054009    Uiso  ? C
   C40        1.0     0.356100     0.887418     0.054295    Uiso  ? C
   C41        1.0     0.255866     0.943057     0.053651    Uiso  ? C
   C42        1.0     0.456125     0.717673     0.054857    Uiso  ? C
   C43        1.0     0.554824     0.887761     0.057068    Uiso  ? C
   C44        1.0     0.455483     0.944550     0.055569    Uiso  ? C
   C45        1.0     0.753488     0.882417     0.058815    Uiso  ? C
   C46        1.0     0.655490     0.943194     0.058512    Uiso  ? C
   C47        1.0     0.855848     0.720086     0.055763    Uiso  ? C
   C48        1.0     0.955147     0.776005     0.054018    Uiso  ? C
   C49        1.0     0.954827     0.886849     0.055078    Uiso  ? C
   C50        1.0     0.853656     0.940465     0.056843    Uiso  ? C
   C51        1.0     0.757002     0.556007     0.057404    Uiso  ? C
   C52        1.0     0.553550     0.778706     0.057580    Uiso  ? C
   C53        1.0     0.753234     0.768792     0.059408    Uiso  ? C
   C54        1.0     0.455878     0.604389     0.055143    Uiso  ? C
   N1         1.0     0.449687     0.390395     0.055128    Uiso  ? N
   N2         1.0     0.664414     0.388846     0.063176    Uiso  ? N
   Fe1        1.0     0.633621     0.660824     0.068731    Uiso  ? Fe
   Ni1        1.0     0.559540     0.493702     0.065557    Uiso  ? Ni
   H1         1.0     0.663190     0.686340     0.137969    Uiso  ? H
   H2         1.0     0.616823     0.568788     0.121011    Uiso  ? H
