
#======================================================================
# CRYSTAL DATA
#----------------------------------------------------------------------
data_VESTA_phase_1

_chemical_name_common                  'CONTCAR\(5)                           '
_cell_length_a                         12.331300
_cell_length_b                         12.829200
_cell_length_c                         19.994400
_cell_angle_alpha                      89.996696
_cell_angle_beta                       89.998299
_cell_angle_gamma                      89.999496
_cell_volume                           3163.128245
_space_group_name_H-M_alt              'P 1'
_space_group_IT_number                 1

loop_
_space_group_symop_operation_xyz
   'x, y, z'

loop_
   _atom_site_label
   _atom_site_occupancy
   _atom_site_fract_x
   _atom_site_fract_y
   _atom_site_fract_z
   _atom_site_adp_type
   _atom_site_U_iso_or_equiv
   _atom_site_type_symbol
   C1         1.0     0.058051     0.053572     0.048382    Uiso  ? C
   C2         1.0     0.158028     0.109073     0.048236    Uiso  ? C
   C3         1.0     0.157898     0.220011     0.047470    Uiso  ? C
   C4         1.0     0.058473     0.275608     0.047196    Uiso  ? C
   C5         1.0     0.258586     0.054613     0.049394    Uiso  ? C
   C6         1.0     0.358624     0.111341     0.051041    Uiso  ? C
   C7         1.0     0.358260     0.223095     0.050145    Uiso  ? C
   C8         1.0     0.257276     0.276076     0.047782    Uiso  ? C
   C9         1.0     0.458475     0.056494     0.053676    Uiso  ? C
   C10        1.0     0.557859     0.114765     0.055615    Uiso  ? C
   C11        1.0     0.558088     0.227457     0.055322    Uiso  ? C
   C12        1.0     0.456645     0.283085     0.051614    Uiso  ? C
   C13        1.0     0.657466     0.055547     0.056421    Uiso  ? C
   C14        1.0     0.757959     0.110560     0.054060    Uiso  ? C
   C15        1.0     0.759211     0.222032     0.053940    Uiso  ? C
   C16        1.0     0.661133     0.282279     0.056858    Uiso  ? C
   C17        1.0     0.857340     0.053896     0.051656    Uiso  ? C
   C18        1.0     0.957965     0.108923     0.049430    Uiso  ? C
   C19        1.0     0.958835     0.219792     0.048857    Uiso  ? C
   C20        1.0     0.859497     0.275880     0.050940    Uiso  ? C
   C21        1.0     0.058732     0.386955     0.046274    Uiso  ? C
   C22        1.0     0.157182     0.442916     0.045894    Uiso  ? C
   C23        1.0     0.157178     0.554341     0.045440    Uiso  ? C
   C24        1.0     0.057465     0.609522     0.045686    Uiso  ? C
   C25        1.0     0.256175     0.386589     0.047035    Uiso  ? C
   C26        1.0     0.355425     0.440970     0.048097    Uiso  ? C
   C27        1.0     0.357212     0.553687     0.049704    Uiso  ? C
   C28        1.0     0.257206     0.609629     0.046804    Uiso  ? C
   C29        1.0     0.762092     0.442002     0.055402    Uiso  ? C
   C30        1.0     0.861053     0.386637     0.050456    Uiso  ? C
   C31        1.0     0.959366     0.442721     0.047271    Uiso  ? C
   C32        1.0     0.957807     0.553372     0.046938    Uiso  ? C
   C33        1.0     0.856214     0.607199     0.050247    Uiso  ? C
   C34        1.0     0.057790     0.721037     0.046206    Uiso  ? C
   C35        1.0     0.157452     0.776270     0.046877    Uiso  ? C
   C36        1.0     0.157890     0.887666     0.047722    Uiso  ? C
   C37        1.0     0.057740     0.942627     0.048022    Uiso  ? C
   C38        1.0     0.257661     0.720581     0.047940    Uiso  ? C
   C39        1.0     0.357649     0.775578     0.051343    Uiso  ? C
   C40        1.0     0.358375     0.887588     0.051565    Uiso  ? C
   C41        1.0     0.258208     0.943285     0.049225    Uiso  ? C
   C42        1.0     0.457650     0.717918     0.056146    Uiso  ? C
   C43        1.0     0.557236     0.886841     0.058581    Uiso  ? C
   C44        1.0     0.457825     0.944206     0.054468    Uiso  ? C
   C45        1.0     0.756717     0.885772     0.055830    Uiso  ? C
   C46        1.0     0.657416     0.944058     0.058008    Uiso  ? C
   C47        1.0     0.857440     0.720658     0.050589    Uiso  ? C
   C48        1.0     0.957488     0.776274     0.047850    Uiso  ? C
   C49        1.0     0.957283     0.887248     0.048932    Uiso  ? C
   C50        1.0     0.856891     0.942238     0.051804    Uiso  ? C
   C51        1.0     0.756979     0.553436     0.056439    Uiso  ? C
   C52        1.0     0.555206     0.777168     0.061923    Uiso  ? C
   C53        1.0     0.758640     0.774492     0.056622    Uiso  ? C
   C54        1.0     0.457101     0.605529     0.056502    Uiso  ? C
   N1         1.0     0.451730     0.390638     0.048347    Uiso  ? N
   N2         1.0     0.666823     0.387620     0.059381    Uiso  ? N
   Fe1        1.0     0.654276     0.673714     0.091071    Uiso  ? Fe
   Ni1        1.0     0.563556     0.499155     0.068950    Uiso  ? Ni
   O1         1.0     0.546197     0.488622     0.162678    Uiso  ? O
   O2         1.0     0.664614     0.674577     0.182302    Uiso  ? O
   H1         1.0     0.652193     0.740956     0.204665    Uiso  ? H
   H2         1.0     0.575604     0.550860     0.184912    Uiso  ? H
