
#======================================================================
# CRYSTAL DATA
#----------------------------------------------------------------------
data_VESTA_phase_1

_chemical_name_common                  'POSCAR\(2)                            '
_cell_length_a                         12.331300
_cell_length_b                         12.829200
_cell_length_c                         19.994400
_cell_angle_alpha                      89.996696
_cell_angle_beta                       89.998299
_cell_angle_gamma                      89.999496
_cell_volume                           3163.128245
_space_group_name_H-M_alt              'P 1'
_space_group_IT_number                 1

loop_
_space_group_symop_operation_xyz
   'x, y, z'

loop_
   _atom_site_label
   _atom_site_occupancy
   _atom_site_fract_x
   _atom_site_fract_y
   _atom_site_fract_z
   _atom_site_adp_type
   _atom_site_U_iso_or_equiv
   _atom_site_type_symbol
   C1         1.0     0.056314     0.053650     0.055766    Uiso  ? C
   C2         1.0     0.156395     0.109493     0.055783    Uiso  ? C
   C3         1.0     0.156553     0.220451     0.055766    Uiso  ? C
   C4         1.0     0.057046     0.275821     0.055744    Uiso  ? C
   C5         1.0     0.256862     0.055288     0.055805    Uiso  ? C
   C6         1.0     0.356760     0.112296     0.055768    Uiso  ? C
   C7         1.0     0.356773     0.223933     0.055735    Uiso  ? C
   C8         1.0     0.255802     0.276721     0.055759    Uiso  ? C
   C9         1.0     0.456629     0.057578     0.055724    Uiso  ? C
   C10        1.0     0.556429     0.114938     0.055678    Uiso  ? C
   C11        1.0     0.556839     0.227815     0.055649    Uiso  ? C
   C12        1.0     0.455507     0.283651     0.055664    Uiso  ? C
   C13        1.0     0.655915     0.055845     0.055696    Uiso  ? C
   C14        1.0     0.756386     0.110739     0.055712    Uiso  ? C
   C15        1.0     0.757770     0.222212     0.055702    Uiso  ? C
   C16        1.0     0.659631     0.282393     0.055656    Uiso  ? C
   C17        1.0     0.855475     0.053314     0.055723    Uiso  ? C
   C18        1.0     0.956172     0.108638     0.055739    Uiso  ? C
   C19        1.0     0.957437     0.219759     0.055731    Uiso  ? C
   C20        1.0     0.858430     0.275959     0.055713    Uiso  ? C
   C21        1.0     0.057673     0.387166     0.055745    Uiso  ? C
   C22        1.0     0.156062     0.443526     0.055762    Uiso  ? C
   C23        1.0     0.156186     0.554840     0.055777    Uiso  ? C
   C24        1.0     0.056329     0.610026     0.055770    Uiso  ? C
   C25        1.0     0.255078     0.387421     0.055749    Uiso  ? C
   C26        1.0     0.354028     0.442004     0.055705    Uiso  ? C
   C27        1.0     0.356416     0.554581     0.055715    Uiso  ? C
   C28        1.0     0.256117     0.610096     0.055764    Uiso  ? C
   C29        1.0     0.761744     0.442612     0.055671    Uiso  ? C
   C30        1.0     0.860373     0.386614     0.055700    Uiso  ? C
   C31        1.0     0.958541     0.442836     0.055729    Uiso  ? C
   C32        1.0     0.956923     0.553658     0.055731    Uiso  ? C
   C33        1.0     0.855659     0.607436     0.055695    Uiso  ? C
   C34        1.0     0.056120     0.721302     0.055779    Uiso  ? C
   C35        1.0     0.155672     0.776680     0.055801    Uiso  ? C
   C36        1.0     0.156091     0.887954     0.055808    Uiso  ? C
   C37        1.0     0.055746     0.942714     0.055784    Uiso  ? C
   C38        1.0     0.255807     0.721135     0.055780    Uiso  ? C
   C39        1.0     0.355396     0.776430     0.055751    Uiso  ? C
   C40        1.0     0.356333     0.888399     0.055771    Uiso  ? C
   C41        1.0     0.256297     0.943777     0.055811    Uiso  ? C
   C42        1.0     0.455799     0.719151     0.055666    Uiso  ? C
   C43        1.0     0.554894     0.889463     0.055680    Uiso  ? C
   C44        1.0     0.455694     0.945819     0.055735    Uiso  ? C
   C45        1.0     0.754184     0.883458     0.055655    Uiso  ? C
   C46        1.0     0.655711     0.944138     0.055678    Uiso  ? C
   C47        1.0     0.855886     0.720471     0.055687    Uiso  ? C
   C48        1.0     0.955564     0.776144     0.055742    Uiso  ? C
   C49        1.0     0.955353     0.887164     0.055747    Uiso  ? C
   C50        1.0     0.854468     0.941216     0.055695    Uiso  ? C
   C51        1.0     0.755516     0.553643     0.055666    Uiso  ? C
   C52        1.0     0.552909     0.780351     0.055633    Uiso  ? C
   C53        1.0     0.754046     0.770666     0.055638    Uiso  ? C
   C54        1.0     0.457971     0.605660     0.055654    Uiso  ? C
   N1         1.0     0.450980     0.391527     0.055648    Uiso  ? N
   N2         1.0     0.665385     0.388340     0.055641    Uiso  ? N
   Fe1        1.0     0.634524     0.663997     0.055625    Uiso  ? Fe
   Ni1        1.0     0.564772     0.495695     0.055620    Uiso  ? Ni
