
#======================================================================
# CRYSTAL DATA
#----------------------------------------------------------------------
data_VESTA_phase_1

_chemical_name_common                  'CONTCAR\(3)                           '
_cell_length_a                         12.331300
_cell_length_b                         12.829200
_cell_length_c                         19.994400
_cell_angle_alpha                      89.996696
_cell_angle_beta                       89.998299
_cell_angle_gamma                      89.999496
_cell_volume                           3163.128245
_space_group_name_H-M_alt              'P 1'
_space_group_IT_number                 1

loop_
_space_group_symop_operation_xyz
   'x, y, z'

loop_
   _atom_site_label
   _atom_site_occupancy
   _atom_site_fract_x
   _atom_site_fract_y
   _atom_site_fract_z
   _atom_site_adp_type
   _atom_site_U_iso_or_equiv
   _atom_site_type_symbol
   C1         1.0     0.055850     0.054010     0.050314    Uiso  ? C
   C2         1.0     0.156291     0.109650     0.050593    Uiso  ? C
   C3         1.0     0.156771     0.220479     0.048879    Uiso  ? C
   C4         1.0     0.056906     0.275467     0.047339    Uiso  ? C
   C5         1.0     0.256895     0.055493     0.053607    Uiso  ? C
   C6         1.0     0.357127     0.112160     0.056654    Uiso  ? C
   C7         1.0     0.357530     0.223928     0.055520    Uiso  ? C
   C8         1.0     0.256431     0.276771     0.050441    Uiso  ? C
   C9         1.0     0.457009     0.056916     0.061041    Uiso  ? C
   C10        1.0     0.557391     0.114457     0.062952    Uiso  ? C
   C11        1.0     0.558287     0.227331     0.063430    Uiso  ? C
   C12        1.0     0.457071     0.283345     0.060006    Uiso  ? C
   C13        1.0     0.656059     0.054673     0.061912    Uiso  ? C
   C14        1.0     0.755894     0.110579     0.057743    Uiso  ? C
   C15        1.0     0.757245     0.222890     0.057496    Uiso  ? C
   C16        1.0     0.660426     0.283905     0.063278    Uiso  ? C
   C17        1.0     0.855100     0.053687     0.054093    Uiso  ? C
   C18        1.0     0.955742     0.108907     0.051096    Uiso  ? C
   C19        1.0     0.956954     0.220002     0.049706    Uiso  ? C
   C20        1.0     0.857835     0.276185     0.052101    Uiso  ? C
   C21        1.0     0.057055     0.386670     0.045702    Uiso  ? C
   C22        1.0     0.155349     0.443302     0.046258    Uiso  ? C
   C23        1.0     0.155095     0.554996     0.046662    Uiso  ? C
   C24        1.0     0.056291     0.610329     0.045878    Uiso  ? C
   C25        1.0     0.254359     0.387617     0.048979    Uiso  ? C
   C26        1.0     0.351945     0.444022     0.053905    Uiso  ? C
   C27        1.0     0.352045     0.556089     0.056483    Uiso  ? C
   C28        1.0     0.253802     0.611685     0.050993    Uiso  ? C
   C29        1.0     0.761746     0.444240     0.055517    Uiso  ? C
   C30        1.0     0.859431     0.387080     0.049636    Uiso  ? C
   C31        1.0     0.958274     0.442249     0.045963    Uiso  ? C
   C32        1.0     0.957864     0.553034     0.045914    Uiso  ? C
   C33        1.0     0.857914     0.605615     0.048268    Uiso  ? C
   C34        1.0     0.055642     0.721595     0.047360    Uiso  ? C
   C35        1.0     0.154801     0.777808     0.049787    Uiso  ? C
   C36        1.0     0.155509     0.888741     0.050990    Uiso  ? C
   C37        1.0     0.055154     0.943060     0.050151    Uiso  ? C
   C38        1.0     0.254155     0.722477     0.052628    Uiso  ? C
   C39        1.0     0.353782     0.776892     0.058645    Uiso  ? C
   C40        1.0     0.355667     0.888592     0.058719    Uiso  ? C
   C41        1.0     0.256079     0.944273     0.054181    Uiso  ? C
   C42        1.0     0.451866     0.718529     0.067741    Uiso  ? C
   C43        1.0     0.554654     0.886308     0.067499    Uiso  ? C
   C44        1.0     0.455875     0.944724     0.062867    Uiso  ? C
   C45        1.0     0.754428     0.883957     0.057546    Uiso  ? C
   C46        1.0     0.655415     0.942512     0.063110    Uiso  ? C
   C47        1.0     0.855728     0.718870     0.049772    Uiso  ? C
   C48        1.0     0.955412     0.775717     0.048594    Uiso  ? C
   C49        1.0     0.954874     0.886969     0.050315    Uiso  ? C
   C50        1.0     0.854281     0.941538     0.053672    Uiso  ? C
   C51        1.0     0.452497     0.394409     0.059794    Uiso  ? C
   C52        1.0     0.550920     0.776170     0.073797    Uiso  ? C
   C53        1.0     0.755313     0.771674     0.055317    Uiso  ? C
   C54        1.0     0.451627     0.605906     0.068477    Uiso  ? C
   N1         1.0     0.666106     0.392331     0.066708    Uiso  ? N
   N2         1.0     0.762049     0.552083     0.052508    Uiso  ? N
   Fe1        1.0     0.649512     0.665993     0.075499    Uiso  ? Fe
   Ni1        1.0     0.558311     0.495745     0.080978    Uiso  ? Ni
   H1         1.0     0.616097     0.573364     0.133727    Uiso  ? H
