
#======================================================================
# CRYSTAL DATA
#----------------------------------------------------------------------
data_VESTA_phase_1

_chemical_name_common                  'CONTCAR\(2)\(3)                       '
_cell_length_a                         12.331300
_cell_length_b                         12.829200
_cell_length_c                         19.994400
_cell_angle_alpha                      89.996696
_cell_angle_beta                       89.998299
_cell_angle_gamma                      89.999496
_cell_volume                           3163.128245
_space_group_name_H-M_alt              'P 1'
_space_group_IT_number                 1

loop_
_space_group_symop_operation_xyz
   'x, y, z'

loop_
   _atom_site_label
   _atom_site_occupancy
   _atom_site_fract_x
   _atom_site_fract_y
   _atom_site_fract_z
   _atom_site_adp_type
   _atom_site_U_iso_or_equiv
   _atom_site_type_symbol
   C1         1.0     0.056094     0.054670     0.055517    Uiso  ? C
   C2         1.0     0.156117     0.110475     0.054727    Uiso  ? C
   C3         1.0     0.156600     0.221363     0.054030    Uiso  ? C
   C4         1.0     0.056638     0.276396     0.053404    Uiso  ? C
   C5         1.0     0.256589     0.055893     0.054749    Uiso  ? C
   C6         1.0     0.356917     0.112199     0.055482    Uiso  ? C
   C7         1.0     0.357430     0.223811     0.055798    Uiso  ? C
   C8         1.0     0.256442     0.277384     0.054348    Uiso  ? C
   C9         1.0     0.456677     0.056364     0.055938    Uiso  ? C
   C10        1.0     0.557605     0.112554     0.057541    Uiso  ? C
   C11        1.0     0.557924     0.224710     0.058626    Uiso  ? C
   C12        1.0     0.457611     0.282051     0.057350    Uiso  ? C
   C13        1.0     0.657025     0.052946     0.057882    Uiso  ? C
   C14        1.0     0.756398     0.109669     0.057527    Uiso  ? C
   C15        1.0     0.757786     0.221502     0.057098    Uiso  ? C
   C16        1.0     0.659724     0.281037     0.059298    Uiso  ? C
   C17        1.0     0.855377     0.053035     0.057026    Uiso  ? C
   C18        1.0     0.955830     0.108986     0.055695    Uiso  ? C
   C19        1.0     0.957066     0.220194     0.054374    Uiso  ? C
   C20        1.0     0.857778     0.276168     0.054768    Uiso  ? C
   C21        1.0     0.056645     0.387822     0.052646    Uiso  ? C
   C22        1.0     0.155290     0.443689     0.052666    Uiso  ? C
   C23        1.0     0.155287     0.555225     0.052665    Uiso  ? C
   C24        1.0     0.055619     0.610458     0.053380    Uiso  ? C
   C25        1.0     0.254799     0.388147     0.053509    Uiso  ? C
   C26        1.0     0.353144     0.444229     0.054442    Uiso  ? C
   C27        1.0     0.354540     0.556613     0.053770    Uiso  ? C
   C28        1.0     0.254442     0.611698     0.052865    Uiso  ? C
   C29        1.0     0.759934     0.443175     0.056606    Uiso  ? C
   C30        1.0     0.858895     0.387370     0.053516    Uiso  ? C
   C31        1.0     0.957340     0.443734     0.052626    Uiso  ? C
   C32        1.0     0.956364     0.554722     0.053505    Uiso  ? C
   C33        1.0     0.855489     0.609366     0.055624    Uiso  ? C
   C34        1.0     0.055139     0.721616     0.054519    Uiso  ? C
   C35        1.0     0.154065     0.777791     0.054186    Uiso  ? C
   C36        1.0     0.155360     0.888899     0.054795    Uiso  ? C
   C37        1.0     0.055498     0.943841     0.055957    Uiso  ? C
   C38        1.0     0.253591     0.722425     0.053254    Uiso  ? C
   C39        1.0     0.352728     0.777605     0.053125    Uiso  ? C
   C40        1.0     0.355305     0.888958     0.053627    Uiso  ? C
   C41        1.0     0.255629     0.944752     0.054282    Uiso  ? C
   C42        1.0     0.452100     0.720289     0.053284    Uiso  ? C
   C43        1.0     0.554792     0.886682     0.055212    Uiso  ? C
   C44        1.0     0.455478     0.944893     0.054580    Uiso  ? C
   C45        1.0     0.755705     0.881610     0.059345    Uiso  ? C
   C46        1.0     0.656724     0.940788     0.057788    Uiso  ? C
   C47        1.0     0.855777     0.722085     0.057588    Uiso  ? C
   C48        1.0     0.955370     0.777091     0.056227    Uiso  ? C
   C49        1.0     0.955809     0.887891     0.057068    Uiso  ? C
   C50        1.0     0.854688     0.940732     0.058062    Uiso  ? C
   C51        1.0     0.453251     0.393146     0.056990    Uiso  ? C
   C52        1.0     0.755874     0.555587     0.057264    Uiso  ? C
   C53        1.0     0.549734     0.778304     0.054279    Uiso  ? C
   C54        1.0     0.455367     0.607858     0.054892    Uiso  ? C
   N1         1.0     0.664273     0.387416     0.061154    Uiso  ? N
   N2         1.0     0.757203     0.771392     0.060934    Uiso  ? N
   Fe1        1.0     0.636905     0.662549     0.066330    Uiso  ? Fe
   Ni1        1.0     0.563712     0.493585     0.064580    Uiso  ? Ni
   H1         1.0     0.628170     0.572506     0.120434    Uiso  ? H
