
#======================================================================
# CRYSTAL DATA
#----------------------------------------------------------------------
data_VESTA_phase_1

_chemical_name_common                  'CONTCAR\(2)\(3)                       '
_cell_length_a                         12.331300
_cell_length_b                         12.829200
_cell_length_c                         19.994400
_cell_angle_alpha                      89.996696
_cell_angle_beta                       89.998299
_cell_angle_gamma                      89.999496
_cell_volume                           3163.128245
_space_group_name_H-M_alt              'P 1'
_space_group_IT_number                 1

loop_
_space_group_symop_operation_xyz
   'x, y, z'

loop_
   _atom_site_label
   _atom_site_occupancy
   _atom_site_fract_x
   _atom_site_fract_y
   _atom_site_fract_z
   _atom_site_adp_type
   _atom_site_U_iso_or_equiv
   _atom_site_type_symbol
   C1         1.0     0.056426     0.054949     0.048903    Uiso  ? C
   C2         1.0     0.156650     0.110300     0.048584    Uiso  ? C
   C3         1.0     0.156701     0.221187     0.047094    Uiso  ? C
   C4         1.0     0.056506     0.276368     0.046358    Uiso  ? C
   C5         1.0     0.257249     0.055580     0.050664    Uiso  ? C
   C6         1.0     0.357573     0.111931     0.053802    Uiso  ? C
   C7         1.0     0.357814     0.223905     0.052898    Uiso  ? C
   C8         1.0     0.256486     0.276914     0.047984    Uiso  ? C
   C9         1.0     0.457114     0.055794     0.058437    Uiso  ? C
   C10        1.0     0.557498     0.112775     0.061870    Uiso  ? C
   C11        1.0     0.557632     0.225292     0.062652    Uiso  ? C
   C12        1.0     0.457584     0.282752     0.057881    Uiso  ? C
   C13        1.0     0.656915     0.053054     0.061984    Uiso  ? C
   C14        1.0     0.756253     0.110024     0.058232    Uiso  ? C
   C15        1.0     0.757470     0.222037     0.058304    Uiso  ? C
   C16        1.0     0.659667     0.281911     0.063848    Uiso  ? C
   C17        1.0     0.855760     0.054167     0.054242    Uiso  ? C
   C18        1.0     0.956147     0.109589     0.050669    Uiso  ? C
   C19        1.0     0.956947     0.220611     0.049590    Uiso  ? C
   C20        1.0     0.857452     0.276404     0.053074    Uiso  ? C
   C21        1.0     0.055888     0.387712     0.044427    Uiso  ? C
   C22        1.0     0.154530     0.443416     0.043445    Uiso  ? C
   C23        1.0     0.154186     0.555027     0.043058    Uiso  ? C
   C24        1.0     0.055032     0.610495     0.043407    Uiso  ? C
   C25        1.0     0.254187     0.387594     0.045921    Uiso  ? C
   C26        1.0     0.351837     0.443815     0.049626    Uiso  ? C
   C27        1.0     0.351634     0.555685     0.050568    Uiso  ? C
   C28        1.0     0.253133     0.611408     0.045708    Uiso  ? C
   C29        1.0     0.759010     0.443431     0.058561    Uiso  ? C
   C30        1.0     0.857892     0.387548     0.051611    Uiso  ? C
   C31        1.0     0.956329     0.443763     0.046176    Uiso  ? C
   C32        1.0     0.955830     0.554788     0.045432    Uiso  ? C
   C33        1.0     0.854904     0.609164     0.049921    Uiso  ? C
   C34        1.0     0.055752     0.721882     0.044625    Uiso  ? C
   C35        1.0     0.154875     0.777809     0.045692    Uiso  ? C
   C36        1.0     0.156102     0.888964     0.047598    Uiso  ? C
   C37        1.0     0.056213     0.944172     0.048255    Uiso  ? C
   C38        1.0     0.254234     0.722119     0.047212    Uiso  ? C
   C39        1.0     0.354040     0.776083     0.053243    Uiso  ? C
   C40        1.0     0.356193     0.887841     0.054301    Uiso  ? C
   C41        1.0     0.256592     0.944196     0.050394    Uiso  ? C
   C42        1.0     0.452225     0.717272     0.062202    Uiso  ? C
   C43        1.0     0.554890     0.884607     0.066236    Uiso  ? C
   C44        1.0     0.456147     0.943648     0.059549    Uiso  ? C
   C45        1.0     0.757123     0.883945     0.059251    Uiso  ? C
   C46        1.0     0.656661     0.940544     0.063822    Uiso  ? C
   C47        1.0     0.856993     0.723174     0.050989    Uiso  ? C
   C48        1.0     0.956378     0.777705     0.047706    Uiso  ? C
   C49        1.0     0.956371     0.888654     0.049656    Uiso  ? C
   C50        1.0     0.855801     0.942351     0.054063    Uiso  ? C
   C51        1.0     0.452931     0.394629     0.056821    Uiso  ? C
   C52        1.0     0.756322     0.555133     0.057470    Uiso  ? C
   C53        1.0     0.549328     0.775227     0.072770    Uiso  ? C
   C54        1.0     0.451561     0.604835     0.061046    Uiso  ? C
   N1         1.0     0.663590     0.388334     0.067450    Uiso  ? N
   N2         1.0     0.760659     0.775083     0.058741    Uiso  ? N
   Fe1        1.0     0.656399     0.671902     0.088428    Uiso  ? Fe
   Ni1        1.0     0.558716     0.494902     0.076415    Uiso  ? Ni
   O1         1.0     0.609770     0.585926     0.158230    Uiso  ? O
   H1         1.0     0.543798     0.613602     0.178635    Uiso  ? H
