
#======================================================================
# CRYSTAL DATA
#----------------------------------------------------------------------
data_VESTA_phase_1

_chemical_name_common                  'CONTCAR\(2)\(3)                       '
_cell_length_a                         12.331300
_cell_length_b                         12.829200
_cell_length_c                         19.994400
_cell_angle_alpha                      89.996696
_cell_angle_beta                       89.998299
_cell_angle_gamma                      89.999496
_cell_volume                           3163.128245
_space_group_name_H-M_alt              'P 1'
_space_group_IT_number                 1

loop_
_space_group_symop_operation_xyz
   'x, y, z'

loop_
   _atom_site_label
   _atom_site_occupancy
   _atom_site_fract_x
   _atom_site_fract_y
   _atom_site_fract_z
   _atom_site_adp_type
   _atom_site_U_iso_or_equiv
   _atom_site_type_symbol
   C1         1.0     0.056838     0.055070     0.051702    Uiso  ? C
   C2         1.0     0.157074     0.109777     0.050710    Uiso  ? C
   C3         1.0     0.156196     0.220608     0.049080    Uiso  ? C
   C4         1.0     0.055890     0.276427     0.048971    Uiso  ? C
   C5         1.0     0.257971     0.054525     0.051749    Uiso  ? C
   C6         1.0     0.358298     0.110358     0.054546    Uiso  ? C
   C7         1.0     0.357634     0.222589     0.053282    Uiso  ? C
   C8         1.0     0.256019     0.275829     0.048714    Uiso  ? C
   C9         1.0     0.458270     0.053866     0.058782    Uiso  ? C
   C10        1.0     0.557917     0.111987     0.062992    Uiso  ? C
   C11        1.0     0.557465     0.224992     0.063756    Uiso  ? C
   C12        1.0     0.456965     0.281929     0.057648    Uiso  ? C
   C13        1.0     0.657360     0.052562     0.064352    Uiso  ? C
   C14        1.0     0.756393     0.110082     0.061836    Uiso  ? C
   C15        1.0     0.756906     0.222522     0.061969    Uiso  ? C
   C16        1.0     0.658908     0.282164     0.066458    Uiso  ? C
   C17        1.0     0.856385     0.054739     0.058022    Uiso  ? C
   C18        1.0     0.956495     0.110131     0.054181    Uiso  ? C
   C19        1.0     0.956377     0.221280     0.053145    Uiso  ? C
   C20        1.0     0.856616     0.277426     0.057048    Uiso  ? C
   C21        1.0     0.054624     0.387869     0.046176    Uiso  ? C
   C22        1.0     0.153344     0.442952     0.043374    Uiso  ? C
   C23        1.0     0.152966     0.554582     0.041929    Uiso  ? C
   C24        1.0     0.054300     0.610664     0.043613    Uiso  ? C
   C25        1.0     0.252775     0.386408     0.045436    Uiso  ? C
   C26        1.0     0.350341     0.442291     0.047200    Uiso  ? C
   C27        1.0     0.349786     0.554120     0.045957    Uiso  ? C
   C28        1.0     0.252191     0.610666     0.042512    Uiso  ? C
   C29        1.0     0.756875     0.445009     0.062855    Uiso  ? C
   C30        1.0     0.856484     0.389018     0.055629    Uiso  ? C
   C31        1.0     0.955158     0.444467     0.048810    Uiso  ? C
   C32        1.0     0.954779     0.555552     0.047397    Uiso  ? C
   C33        1.0     0.854761     0.611426     0.053273    Uiso  ? C
   C34        1.0     0.056363     0.722157     0.044717    Uiso  ? C
   C35        1.0     0.155898     0.777544     0.044968    Uiso  ? C
   C36        1.0     0.157183     0.888601     0.048073    Uiso  ? C
   C37        1.0     0.057337     0.944276     0.050507    Uiso  ? C
   C38        1.0     0.255188     0.721371     0.044658    Uiso  ? C
   C39        1.0     0.356037     0.774249     0.049964    Uiso  ? C
   C40        1.0     0.357997     0.886139     0.052650    Uiso  ? C
   C41        1.0     0.258028     0.943084     0.050374    Uiso  ? C
   C42        1.0     0.454667     0.714021     0.055813    Uiso  ? C
   C43        1.0     0.557768     0.880801     0.064200    Uiso  ? C
   C44        1.0     0.458302     0.940979     0.058456    Uiso  ? C
   C45        1.0     0.759268     0.884709     0.064110    Uiso  ? C
   C46        1.0     0.657953     0.939511     0.065750    Uiso  ? C
   C47        1.0     0.858461     0.724652     0.055481    Uiso  ? C
   C48        1.0     0.957658     0.778459     0.049650    Uiso  ? C
   C49        1.0     0.957691     0.889249     0.052695    Uiso  ? C
   C50        1.0     0.857360     0.943174     0.058096    Uiso  ? C
   C51        1.0     0.451507     0.393386     0.054530    Uiso  ? C
   C52        1.0     0.755703     0.558292     0.061891    Uiso  ? C
   C53        1.0     0.553350     0.769502     0.066346    Uiso  ? C
   C54        1.0     0.449882     0.602607     0.054221    Uiso  ? C
   N1         1.0     0.662408     0.389498     0.070330    Uiso  ? N
   N2         1.0     0.763451     0.776516     0.066637    Uiso  ? N
   Fe1        1.0     0.660969     0.671442     0.099154    Uiso  ? Fe
   Ni1        1.0     0.554784     0.496706     0.075170    Uiso  ? Ni
   O1         1.0     0.600086     0.583136     0.147208    Uiso  ? O
