
#======================================================================
# CRYSTAL DATA
#----------------------------------------------------------------------
data_VESTA_phase_1

_chemical_name_common                  'CONTCAR\(2)\(3)                       '
_cell_length_a                         12.331300
_cell_length_b                         12.829200
_cell_length_c                         19.994400
_cell_angle_alpha                      89.996696
_cell_angle_beta                       89.998299
_cell_angle_gamma                      89.999496
_cell_volume                           3163.128245
_space_group_name_H-M_alt              'P 1'
_space_group_IT_number                 1

loop_
_space_group_symop_operation_xyz
   'x, y, z'

loop_
   _atom_site_label
   _atom_site_occupancy
   _atom_site_fract_x
   _atom_site_fract_y
   _atom_site_fract_z
   _atom_site_adp_type
   _atom_site_U_iso_or_equiv
   _atom_site_type_symbol
   C1         1.0     0.055939     0.053299     0.053503    Uiso  ? C
   C2         1.0     0.156017     0.109260     0.053263    Uiso  ? C
   C3         1.0     0.156699     0.220162     0.052908    Uiso  ? C
   C4         1.0     0.056626     0.275092     0.052273    Uiso  ? C
   C5         1.0     0.256473     0.054782     0.053754    Uiso  ? C
   C6         1.0     0.356800     0.111221     0.055344    Uiso  ? C
   C7         1.0     0.357583     0.222873     0.055709    Uiso  ? C
   C8         1.0     0.256530     0.276260     0.053675    Uiso  ? C
   C9         1.0     0.456471     0.055219     0.056664    Uiso  ? C
   C10        1.0     0.557444     0.111292     0.058560    Uiso  ? C
   C11        1.0     0.557866     0.223568     0.059311    Uiso  ? C
   C12        1.0     0.457829     0.281235     0.057908    Uiso  ? C
   C13        1.0     0.656798     0.051633     0.058860    Uiso  ? C
   C14        1.0     0.756222     0.108315     0.057614    Uiso  ? C
   C15        1.0     0.757761     0.220131     0.057202    Uiso  ? C
   C16        1.0     0.659716     0.279813     0.059583    Uiso  ? C
   C17        1.0     0.855194     0.051583     0.056151    Uiso  ? C
   C18        1.0     0.955657     0.107543     0.054217    Uiso  ? C
   C19        1.0     0.957053     0.218775     0.053358    Uiso  ? C
   C20        1.0     0.857842     0.274725     0.054510    Uiso  ? C
   C21        1.0     0.056764     0.386446     0.051485    Uiso  ? C
   C22        1.0     0.155397     0.442475     0.051205    Uiso  ? C
   C23        1.0     0.155153     0.553950     0.050746    Uiso  ? C
   C24        1.0     0.055274     0.609129     0.050972    Uiso  ? C
   C25        1.0     0.255051     0.387049     0.052633    Uiso  ? C
   C26        1.0     0.353334     0.443265     0.054103    Uiso  ? C
   C27        1.0     0.354409     0.555425     0.053093    Uiso  ? C
   C28        1.0     0.254213     0.610476     0.051212    Uiso  ? C
   C29        1.0     0.760197     0.441743     0.056509    Uiso  ? C
   C30        1.0     0.859055     0.385847     0.053451    Uiso  ? C
   C31        1.0     0.957419     0.442298     0.051722    Uiso  ? C
   C32        1.0     0.956169     0.553227     0.051700    Uiso  ? C
   C33        1.0     0.855001     0.607556     0.053722    Uiso  ? C
   C34        1.0     0.054824     0.720257     0.051512    Uiso  ? C
   C35        1.0     0.153786     0.776505     0.051449    Uiso  ? C
   C36        1.0     0.155106     0.887609     0.052292    Uiso  ? C
   C37        1.0     0.055214     0.942490     0.053284    Uiso  ? C
   C38        1.0     0.253306     0.721173     0.051298    Uiso  ? C
   C39        1.0     0.352452     0.776364     0.052633    Uiso  ? C
   C40        1.0     0.354969     0.887772     0.053675    Uiso  ? C
   C41        1.0     0.255426     0.943536     0.053012    Uiso  ? C
   C42        1.0     0.451465     0.719089     0.055082    Uiso  ? C
   C43        1.0     0.554211     0.885721     0.058675    Uiso  ? C
   C44        1.0     0.455160     0.943767     0.055970    Uiso  ? C
   C45        1.0     0.755368     0.879908     0.058854    Uiso  ? C
   C46        1.0     0.656229     0.939290     0.059453    Uiso  ? C
   C47        1.0     0.855528     0.720410     0.054795    Uiso  ? C
   C48        1.0     0.954968     0.775640     0.053179    Uiso  ? C
   C49        1.0     0.955437     0.886457     0.054314    Uiso  ? C
   C50        1.0     0.854359     0.939217     0.056601    Uiso  ? C
   C51        1.0     0.453915     0.392657     0.057722    Uiso  ? C
   C52        1.0     0.755353     0.553920     0.056574    Uiso  ? C
   C53        1.0     0.549445     0.776916     0.060099    Uiso  ? C
   C54        1.0     0.455005     0.606968     0.055736    Uiso  ? C
   N1         1.0     0.664270     0.386138     0.060966    Uiso  ? N
   N2         1.0     0.756964     0.769589     0.058499    Uiso  ? N
   Fe1        1.0     0.638171     0.664352     0.068516    Uiso  ? Fe
   Ni1        1.0     0.564900     0.493473     0.064032    Uiso  ? Ni
   H1         1.0     0.633927     0.690722     0.139999    Uiso  ? H
   H2         1.0     0.627630     0.578855     0.122470    Uiso  ? H
