
#======================================================================
# CRYSTAL DATA
#----------------------------------------------------------------------
data_VESTA_phase_1

_chemical_name_common                  'CONTCAR                               '
_cell_length_a                         12.331300
_cell_length_b                         12.829200
_cell_length_c                         19.994400
_cell_angle_alpha                      89.996696
_cell_angle_beta                       89.998299
_cell_angle_gamma                      89.999496
_cell_volume                           3163.128245
_space_group_name_H-M_alt              'P 1'
_space_group_IT_number                 1

loop_
_space_group_symop_operation_xyz
   'x, y, z'

loop_
   _atom_site_label
   _atom_site_occupancy
   _atom_site_fract_x
   _atom_site_fract_y
   _atom_site_fract_z
   _atom_site_adp_type
   _atom_site_U_iso_or_equiv
   _atom_site_type_symbol
   C1         1.0     0.057877     0.048623     0.047881    Uiso  ? C
   C2         1.0     0.158173     0.103373     0.047044    Uiso  ? C
   C3         1.0     0.157281     0.214284     0.045712    Uiso  ? C
   C4         1.0     0.056794     0.270194     0.046165    Uiso  ? C
   C5         1.0     0.259129     0.048085     0.048326    Uiso  ? C
   C6         1.0     0.359487     0.103943     0.051357    Uiso  ? C
   C7         1.0     0.358836     0.216157     0.049827    Uiso  ? C
   C8         1.0     0.257099     0.269461     0.045253    Uiso  ? C
   C9         1.0     0.459428     0.047350     0.056113    Uiso  ? C
   C10        1.0     0.558953     0.105284     0.060682    Uiso  ? C
   C11        1.0     0.558508     0.218370     0.061097    Uiso  ? C
   C12        1.0     0.458272     0.275326     0.054160    Uiso  ? C
   C13        1.0     0.658398     0.046130     0.062374    Uiso  ? C
   C14        1.0     0.757483     0.103536     0.059512    Uiso  ? C
   C15        1.0     0.757997     0.215955     0.060093    Uiso  ? C
   C16        1.0     0.659932     0.275343     0.064528    Uiso  ? C
   C17        1.0     0.857461     0.048280     0.054866    Uiso  ? C
   C18        1.0     0.957442     0.103793     0.050864    Uiso  ? C
   C19        1.0     0.957236     0.215056     0.050474    Uiso  ? C
   C20        1.0     0.857464     0.271272     0.055057    Uiso  ? C
   C21        1.0     0.055297     0.381613     0.043853    Uiso  ? C
   C22        1.0     0.154178     0.436714     0.040781    Uiso  ? C
   C23        1.0     0.153719     0.548212     0.039317    Uiso  ? C
   C24        1.0     0.054755     0.604253     0.040670    Uiso  ? C
   C25        1.0     0.253830     0.380164     0.042217    Uiso  ? C
   C26        1.0     0.351436     0.436103     0.043825    Uiso  ? C
   C27        1.0     0.350936     0.547653     0.044062    Uiso  ? C
   C28        1.0     0.253229     0.604180     0.040294    Uiso  ? C
   C29        1.0     0.757431     0.439485     0.062144    Uiso  ? C
   C30        1.0     0.856890     0.383024     0.054170    Uiso  ? C
   C31        1.0     0.955740     0.438251     0.046930    Uiso  ? C
   C32        1.0     0.954936     0.549313     0.045088    Uiso  ? C
   C33        1.0     0.854322     0.604717     0.051199    Uiso  ? C
   C34        1.0     0.057204     0.715725     0.041114    Uiso  ? C
   C35        1.0     0.157015     0.771105     0.041588    Uiso  ? C
   C36        1.0     0.158344     0.882114     0.044392    Uiso  ? C
   C37        1.0     0.058454     0.937806     0.046355    Uiso  ? C
   C38        1.0     0.256478     0.714909     0.042117    Uiso  ? C
   C39        1.0     0.357590     0.767586     0.047914    Uiso  ? C
   C40        1.0     0.359145     0.879506     0.050241    Uiso  ? C
   C41        1.0     0.259317     0.936540     0.047234    Uiso  ? C
   C42        1.0     0.456206     0.707101     0.055740    Uiso  ? C
   C43        1.0     0.558633     0.874555     0.063317    Uiso  ? C
   C44        1.0     0.459493     0.934405     0.056255    Uiso  ? C
   C45        1.0     0.760538     0.878149     0.060703    Uiso  ? C
   C46        1.0     0.658738     0.932955     0.064171    Uiso  ? C
   C47        1.0     0.858818     0.717902     0.051320    Uiso  ? C
   C48        1.0     0.958356     0.771958     0.045398    Uiso  ? C
   C49        1.0     0.958642     0.882632     0.048236    Uiso  ? C
   C50        1.0     0.858411     0.936709     0.054110    Uiso  ? C
   C51        1.0     0.453076     0.386920     0.050527    Uiso  ? C
   C52        1.0     0.753851     0.553753     0.061209    Uiso  ? C
   C53        1.0     0.554817     0.762564     0.068003    Uiso  ? C
   C54        1.0     0.451620     0.595476     0.053924    Uiso  ? C
   N1         1.0     0.663106     0.382502     0.068766    Uiso  ? N
   N2         1.0     0.764413     0.770201     0.062470    Uiso  ? N
   Fe1        1.0     0.665325     0.675514     0.104553    Uiso  ? Fe
   Ni1        1.0     0.555845     0.487987     0.072377    Uiso  ? Ni
   O1         1.0     0.599103     0.567401     0.152259    Uiso  ? O
   O2         1.0     0.676260     0.746873     0.182451    Uiso  ? O
   H1         1.0     0.697399     0.819681     0.176120    Uiso  ? H
   H2         1.0     0.540356     0.595971     0.179381    Uiso  ? H
