
#======================================================================
# CRYSTAL DATA
#----------------------------------------------------------------------
data_VESTA_phase_1

_chemical_name_common                  'CONTCAR\(2)                           '
_cell_length_a                         12.331300
_cell_length_b                         12.829200
_cell_length_c                         19.994400
_cell_angle_alpha                      89.996696
_cell_angle_beta                       89.998299
_cell_angle_gamma                      89.999496
_cell_volume                           3163.128245
_space_group_name_H-M_alt              'P 1'
_space_group_IT_number                 1

loop_
_space_group_symop_operation_xyz
   'x, y, z'

loop_
   _atom_site_label
   _atom_site_occupancy
   _atom_site_fract_x
   _atom_site_fract_y
   _atom_site_fract_z
   _atom_site_adp_type
   _atom_site_U_iso_or_equiv
   _atom_site_type_symbol
   C1         1.0     0.056253     0.055296     0.051913    Uiso  ? C
   C2         1.0     0.156502     0.110731     0.051729    Uiso  ? C
   C3         1.0     0.156996     0.221715     0.050643    Uiso  ? C
   C4         1.0     0.056758     0.276485     0.049152    Uiso  ? C
   C5         1.0     0.256645     0.055651     0.053304    Uiso  ? C
   C6         1.0     0.356827     0.111435     0.055746    Uiso  ? C
   C7         1.0     0.357469     0.223461     0.055641    Uiso  ? C
   C8         1.0     0.256969     0.277796     0.052011    Uiso  ? C
   C9         1.0     0.456205     0.054896     0.058384    Uiso  ? C
   C10        1.0     0.556052     0.111490     0.060684    Uiso  ? C
   C11        1.0     0.556476     0.222956     0.061666    Uiso  ? C
   C12        1.0     0.457200     0.281169     0.059123    Uiso  ? C
   C13        1.0     0.655675     0.053313     0.060880    Uiso  ? C
   C14        1.0     0.755800     0.109990     0.057941    Uiso  ? C
   C15        1.0     0.756483     0.221613     0.057116    Uiso  ? C
   C16        1.0     0.657097     0.279568     0.062105    Uiso  ? C
   C17        1.0     0.855585     0.054107     0.055427    Uiso  ? C
   C18        1.0     0.955881     0.109917     0.052562    Uiso  ? C
   C19        1.0     0.956554     0.220883     0.050832    Uiso  ? C
   C20        1.0     0.856741     0.276501     0.052078    Uiso  ? C
   C21        1.0     0.057223     0.387615     0.048023    Uiso  ? C
   C22        1.0     0.156152     0.443660     0.048673    Uiso  ? C
   C23        1.0     0.155483     0.554917     0.048820    Uiso  ? C
   C24        1.0     0.056104     0.610348     0.049223    Uiso  ? C
   C25        1.0     0.256370     0.388950     0.050817    Uiso  ? C
   C26        1.0     0.355656     0.445207     0.053546    Uiso  ? C
   C27        1.0     0.354096     0.558154     0.053386    Uiso  ? C
   C28        1.0     0.253902     0.611845     0.050475    Uiso  ? C
   C29        1.0     0.759246     0.444518     0.055438    Uiso  ? C
   C30        1.0     0.858199     0.387535     0.049837    Uiso  ? C
   C31        1.0     0.957481     0.443091     0.048083    Uiso  ? C
   C32        1.0     0.957274     0.553897     0.049423    Uiso  ? C
   C33        1.0     0.857115     0.609102     0.051763    Uiso  ? C
   C34        1.0     0.055906     0.721917     0.050226    Uiso  ? C
   C35        1.0     0.154580     0.778112     0.050477    Uiso  ? C
   C36        1.0     0.155603     0.889247     0.051385    Uiso  ? C
   C37        1.0     0.055747     0.944455     0.052004    Uiso  ? C
   C38        1.0     0.253797     0.722373     0.051091    Uiso  ? C
   C39        1.0     0.353469     0.776630     0.053738    Uiso  ? C
   C40        1.0     0.355523     0.888089     0.054831    Uiso  ? C
   C41        1.0     0.255950     0.944361     0.052846    Uiso  ? C
   C42        1.0     0.451303     0.717735     0.058245    Uiso  ? C
   C43        1.0     0.554570     0.884219     0.062748    Uiso  ? C
   C44        1.0     0.455700     0.942955     0.058387    Uiso  ? C
   C45        1.0     0.755293     0.884870     0.060648    Uiso  ? C
   C46        1.0     0.655111     0.941764     0.062548    Uiso  ? C
   C47        1.0     0.857384     0.721955     0.054496    Uiso  ? C
   C48        1.0     0.956358     0.777635     0.052219    Uiso  ? C
   C49        1.0     0.955806     0.888568     0.053378    Uiso  ? C
   C50        1.0     0.855105     0.942556     0.056306    Uiso  ? C
   C51        1.0     0.456123     0.392949     0.058419    Uiso  ? C
   C52        1.0     0.660417     0.389385     0.064928    Uiso  ? C
   C53        1.0     0.758432     0.555578     0.055881    Uiso  ? C
   C54        1.0     0.551093     0.773414     0.066657    Uiso  ? C
   C55        1.0     0.757398     0.773947     0.061096    Uiso  ? C
   N1         1.0     0.449550     0.609543     0.058260    Uiso  ? N
   Fe1        1.0     0.652919     0.667446     0.085119    Uiso  ? Fe
   Ni1        1.0     0.561979     0.494550     0.072413    Uiso  ? Ni
   H1         1.0     0.616125     0.565933     0.133891    Uiso  ? H
