
#======================================================================
# CRYSTAL DATA
#----------------------------------------------------------------------
data_VESTA_phase_1

_chemical_name_common                  'CONTCAR\(2)                           '
_cell_length_a                         12.331300
_cell_length_b                         12.829200
_cell_length_c                         19.994400
_cell_angle_alpha                      89.996696
_cell_angle_beta                       89.998299
_cell_angle_gamma                      89.999496
_cell_volume                           3163.128245
_space_group_name_H-M_alt              'P 1'
_space_group_IT_number                 1

loop_
_space_group_symop_operation_xyz
   'x, y, z'

loop_
   _atom_site_label
   _atom_site_occupancy
   _atom_site_fract_x
   _atom_site_fract_y
   _atom_site_fract_z
   _atom_site_adp_type
   _atom_site_U_iso_or_equiv
   _atom_site_type_symbol
   C1         1.0     0.056497     0.055970     0.049836    Uiso  ? C
   C2         1.0     0.156787     0.111209     0.049697    Uiso  ? C
   C3         1.0     0.157090     0.222215     0.048729    Uiso  ? C
   C4         1.0     0.056839     0.277076     0.047846    Uiso  ? C
   C5         1.0     0.256888     0.056005     0.051317    Uiso  ? C
   C6         1.0     0.357095     0.111732     0.054023    Uiso  ? C
   C7         1.0     0.357560     0.223661     0.053753    Uiso  ? C
   C8         1.0     0.257075     0.278111     0.049862    Uiso  ? C
   C9         1.0     0.456510     0.055275     0.057473    Uiso  ? C
   C10        1.0     0.556302     0.111806     0.060434    Uiso  ? C
   C11        1.0     0.556656     0.223260     0.061747    Uiso  ? C
   C12        1.0     0.457256     0.281112     0.058133    Uiso  ? C
   C13        1.0     0.656034     0.053733     0.060712    Uiso  ? C
   C14        1.0     0.756102     0.110599     0.057723    Uiso  ? C
   C15        1.0     0.756625     0.222297     0.057906    Uiso  ? C
   C16        1.0     0.657206     0.280014     0.063325    Uiso  ? C
   C17        1.0     0.855961     0.054994     0.054255    Uiso  ? C
   C18        1.0     0.956154     0.110731     0.051268    Uiso  ? C
   C19        1.0     0.956548     0.221719     0.050344    Uiso  ? C
   C20        1.0     0.856768     0.277385     0.053073    Uiso  ? C
   C21        1.0     0.057149     0.388076     0.046093    Uiso  ? C
   C22        1.0     0.156276     0.444005     0.045939    Uiso  ? C
   C23        1.0     0.155825     0.555335     0.045385    Uiso  ? C
   C24        1.0     0.056755     0.610876     0.044890    Uiso  ? C
   C25        1.0     0.256416     0.389230     0.048520    Uiso  ? C
   C26        1.0     0.355773     0.445488     0.051897    Uiso  ? C
   C27        1.0     0.354148     0.558447     0.052332    Uiso  ? C
   C28        1.0     0.254341     0.612173     0.047823    Uiso  ? C
   C29        1.0     0.758574     0.446081     0.057798    Uiso  ? C
   C30        1.0     0.857753     0.388572     0.051345    Uiso  ? C
   C31        1.0     0.957286     0.443607     0.046657    Uiso  ? C
   C32        1.0     0.957679     0.554461     0.045708    Uiso  ? C
   C33        1.0     0.858125     0.609602     0.048698    Uiso  ? C
   C34        1.0     0.056665     0.722440     0.045881    Uiso  ? C
   C35        1.0     0.155352     0.778619     0.047030    Uiso  ? C
   C36        1.0     0.156076     0.889759     0.048592    Uiso  ? C
   C37        1.0     0.056169     0.945121     0.049208    Uiso  ? C
   C38        1.0     0.254525     0.722842     0.048547    Uiso  ? C
   C39        1.0     0.354188     0.776974     0.052867    Uiso  ? C
   C40        1.0     0.355987     0.888379     0.053776    Uiso  ? C
   C41        1.0     0.256356     0.944709     0.050848    Uiso  ? C
   C42        1.0     0.451978     0.717921     0.059597    Uiso  ? C
   C43        1.0     0.554727     0.884412     0.063695    Uiso  ? C
   C44        1.0     0.456084     0.943245     0.058121    Uiso  ? C
   C45        1.0     0.756021     0.886050     0.059163    Uiso  ? C
   C46        1.0     0.655522     0.942185     0.062422    Uiso  ? C
   C47        1.0     0.858500     0.722497     0.050943    Uiso  ? C
   C48        1.0     0.957195     0.778338     0.048165    Uiso  ? C
   C49        1.0     0.956284     0.889320     0.050265    Uiso  ? C
   C50        1.0     0.855669     0.943521     0.054153    Uiso  ? C
   C51        1.0     0.455951     0.392691     0.058009    Uiso  ? C
   C52        1.0     0.659788     0.389925     0.067656    Uiso  ? C
   C53        1.0     0.759073     0.557155     0.056107    Uiso  ? C
   C54        1.0     0.551207     0.773584     0.068740    Uiso  ? C
   C55        1.0     0.759110     0.775312     0.059724    Uiso  ? C
   N1         1.0     0.449362     0.609571     0.059494    Uiso  ? N
   Fe1        1.0     0.659265     0.672091     0.089742    Uiso  ? Fe
   Ni1        1.0     0.558206     0.491176     0.079975    Uiso  ? Ni
   O1         1.0     0.612426     0.579612     0.158243    Uiso  ? O
   H1         1.0     0.549662     0.604265     0.183380    Uiso  ? H
