
#======================================================================
# CRYSTAL DATA
#----------------------------------------------------------------------
data_VESTA_phase_1

_chemical_name_common                  'CONTCAR\(2)                           '
_cell_length_a                         12.331300
_cell_length_b                         12.829200
_cell_length_c                         19.994400
_cell_angle_alpha                      89.996696
_cell_angle_beta                       89.998299
_cell_angle_gamma                      89.999496
_cell_volume                           3163.128245
_space_group_name_H-M_alt              'P 1'
_space_group_IT_number                 1

loop_
_space_group_symop_operation_xyz
   'x, y, z'

loop_
   _atom_site_label
   _atom_site_occupancy
   _atom_site_fract_x
   _atom_site_fract_y
   _atom_site_fract_z
   _atom_site_adp_type
   _atom_site_U_iso_or_equiv
   _atom_site_type_symbol
   C1         1.0     0.056141     0.055573     0.051274    Uiso  ? C
   C2         1.0     0.156541     0.110653     0.050238    Uiso  ? C
   C3         1.0     0.156321     0.221554     0.049218    Uiso  ? C
   C4         1.0     0.055925     0.276754     0.048879    Uiso  ? C
   C5         1.0     0.256868     0.055128     0.051111    Uiso  ? C
   C6         1.0     0.357004     0.110694     0.053840    Uiso  ? C
   C7         1.0     0.356928     0.222693     0.053658    Uiso  ? C
   C8         1.0     0.256398     0.277311     0.049801    Uiso  ? C
   C9         1.0     0.456633     0.054041     0.057185    Uiso  ? C
   C10        1.0     0.556161     0.111089     0.061102    Uiso  ? C
   C11        1.0     0.556159     0.222728     0.062708    Uiso  ? C
   C12        1.0     0.456469     0.280414     0.058367    Uiso  ? C
   C13        1.0     0.655836     0.053057     0.062466    Uiso  ? C
   C14        1.0     0.755694     0.110348     0.060644    Uiso  ? C
   C15        1.0     0.755814     0.222222     0.060502    Uiso  ? C
   C16        1.0     0.656281     0.280062     0.064983    Uiso  ? C
   C17        1.0     0.855658     0.054475     0.057373    Uiso  ? C
   C18        1.0     0.955670     0.110470     0.053505    Uiso  ? C
   C19        1.0     0.955626     0.221684     0.052261    Uiso  ? C
   C20        1.0     0.855765     0.277814     0.055442    Uiso  ? C
   C21        1.0     0.055850     0.387783     0.046791    Uiso  ? C
   C22        1.0     0.155310     0.443520     0.045647    Uiso  ? C
   C23        1.0     0.155097     0.554729     0.044704    Uiso  ? C
   C24        1.0     0.056179     0.610641     0.045361    Uiso  ? C
   C25        1.0     0.255423     0.388396     0.047957    Uiso  ? C
   C26        1.0     0.354864     0.444471     0.050467    Uiso  ? C
   C27        1.0     0.353534     0.557245     0.048922    Uiso  ? C
   C28        1.0     0.254094     0.611343     0.045604    Uiso  ? C
   C29        1.0     0.756805     0.447285     0.060069    Uiso  ? C
   C30        1.0     0.856342     0.389254     0.053496    Uiso  ? C
   C31        1.0     0.956142     0.443678     0.048104    Uiso  ? C
   C32        1.0     0.956746     0.554607     0.047373    Uiso  ? C
   C33        1.0     0.858107     0.610803     0.052704    Uiso  ? C
   C34        1.0     0.056468     0.722092     0.046627    Uiso  ? C
   C35        1.0     0.155599     0.778062     0.046526    Uiso  ? C
   C36        1.0     0.156231     0.889052     0.048579    Uiso  ? C
   C37        1.0     0.056216     0.944740     0.050809    Uiso  ? C
   C38        1.0     0.254950     0.722038     0.046341    Uiso  ? C
   C39        1.0     0.355128     0.775705     0.049383    Uiso  ? C
   C40        1.0     0.356587     0.887184     0.051356    Uiso  ? C
   C41        1.0     0.256753     0.943787     0.049925    Uiso  ? C
   C42        1.0     0.453460     0.715898     0.053348    Uiso  ? C
   C43        1.0     0.556013     0.882596     0.060361    Uiso  ? C
   C44        1.0     0.456852     0.941833     0.056190    Uiso  ? C
   C45        1.0     0.756272     0.884844     0.064059    Uiso  ? C
   C46        1.0     0.655856     0.941251     0.063527    Uiso  ? C
   C47        1.0     0.858659     0.722717     0.056791    Uiso  ? C
   C48        1.0     0.957283     0.778174     0.051237    Uiso  ? C
   C49        1.0     0.956507     0.889049     0.053478    Uiso  ? C
   C50        1.0     0.855758     0.942911     0.058196    Uiso  ? C
   C51        1.0     0.454803     0.391635     0.057548    Uiso  ? C
   C52        1.0     0.658432     0.390454     0.068869    Uiso  ? C
   C53        1.0     0.758654     0.559014     0.059881    Uiso  ? C
   C54        1.0     0.554017     0.770951     0.060417    Uiso  ? C
   C55        1.0     0.758837     0.773962     0.067569    Uiso  ? C
   N1         1.0     0.449633     0.608026     0.053439    Uiso  ? N
   Fe1        1.0     0.652956     0.667866     0.092721    Uiso  ? Fe
   Ni1        1.0     0.556366     0.492416     0.079731    Uiso  ? Ni
   O1         1.0     0.618912     0.576883     0.149717    Uiso  ? O
