
#======================================================================
# CRYSTAL DATA
#----------------------------------------------------------------------
data_VESTA_phase_1

_chemical_name_common                  'CONTCAR\(2)                           '
_cell_length_a                         12.331300
_cell_length_b                         12.829200
_cell_length_c                         19.994400
_cell_angle_alpha                      89.996696
_cell_angle_beta                       89.998299
_cell_angle_gamma                      89.999496
_cell_volume                           3163.128245
_space_group_name_H-M_alt              'P 1'
_space_group_IT_number                 1

loop_
_space_group_symop_operation_xyz
   'x, y, z'

loop_
   _atom_site_label
   _atom_site_occupancy
   _atom_site_fract_x
   _atom_site_fract_y
   _atom_site_fract_z
   _atom_site_adp_type
   _atom_site_U_iso_or_equiv
   _atom_site_type_symbol
   C1         1.0     0.056198     0.052311     0.052491    Uiso  ? C
   C2         1.0     0.156238     0.108022     0.052473    Uiso  ? C
   C3         1.0     0.156916     0.219088     0.052385    Uiso  ? C
   C4         1.0     0.057043     0.273689     0.051872    Uiso  ? C
   C5         1.0     0.256226     0.053087     0.052757    Uiso  ? C
   C6         1.0     0.356495     0.109140     0.053062    Uiso  ? C
   C7         1.0     0.357425     0.221294     0.053181    Uiso  ? C
   C8         1.0     0.256957     0.275523     0.052921    Uiso  ? C
   C9         1.0     0.455481     0.052633     0.053683    Uiso  ? C
   C10        1.0     0.555622     0.108918     0.053920    Uiso  ? C
   C11        1.0     0.556217     0.219653     0.053305    Uiso  ? C
   C12        1.0     0.457444     0.278858     0.053451    Uiso  ? C
   C13        1.0     0.655464     0.050958     0.054623    Uiso  ? C
   C14        1.0     0.756026     0.106753     0.053172    Uiso  ? C
   C15        1.0     0.756977     0.218022     0.052274    Uiso  ? C
   C16        1.0     0.657337     0.275083     0.052810    Uiso  ? C
   C17        1.0     0.855731     0.051300     0.052937    Uiso  ? C
   C18        1.0     0.956216     0.106961     0.052287    Uiso  ? C
   C19        1.0     0.957094     0.217672     0.051645    Uiso  ? C
   C20        1.0     0.857394     0.272840     0.051287    Uiso  ? C
   C21        1.0     0.057507     0.384955     0.052044    Uiso  ? C
   C22        1.0     0.156301     0.441076     0.052722    Uiso  ? C
   C23        1.0     0.155153     0.552311     0.052818    Uiso  ? C
   C24        1.0     0.055486     0.607251     0.052893    Uiso  ? C
   C25        1.0     0.256539     0.386600     0.053182    Uiso  ? C
   C26        1.0     0.356310     0.442927     0.053898    Uiso  ? C
   C27        1.0     0.355098     0.556081     0.054346    Uiso  ? C
   C28        1.0     0.254383     0.609201     0.053226    Uiso  ? C
   C29        1.0     0.759813     0.439113     0.052724    Uiso  ? C
   C30        1.0     0.859221     0.383565     0.051078    Uiso  ? C
   C31        1.0     0.957731     0.440021     0.051811    Uiso  ? C
   C32        1.0     0.955855     0.550946     0.052830    Uiso  ? C
   C33        1.0     0.854642     0.605111     0.053703    Uiso  ? C
   C34        1.0     0.055223     0.718881     0.052982    Uiso  ? C
   C35        1.0     0.154037     0.775180     0.052425    Uiso  ? C
   C36        1.0     0.155010     0.886376     0.052509    Uiso  ? C
   C37        1.0     0.055350     0.941313     0.052719    Uiso  ? C
   C38        1.0     0.253463     0.719822     0.052657    Uiso  ? C
   C39        1.0     0.352970     0.774439     0.053339    Uiso  ? C
   C40        1.0     0.354782     0.885928     0.053470    Uiso  ? C
   C41        1.0     0.255268     0.941892     0.052749    Uiso  ? C
   C42        1.0     0.451242     0.716488     0.055883    Uiso  ? C
   C43        1.0     0.553648     0.882774     0.057791    Uiso  ? C
   C44        1.0     0.454725     0.940992     0.054431    Uiso  ? C
   C45        1.0     0.754621     0.883767     0.056228    Uiso  ? C
   C46        1.0     0.654657     0.940055     0.056957    Uiso  ? C
   C47        1.0     0.855894     0.718530     0.054609    Uiso  ? C
   C48        1.0     0.955550     0.774275     0.053753    Uiso  ? C
   C49        1.0     0.955324     0.885375     0.053433    Uiso  ? C
   C50        1.0     0.855009     0.940082     0.053851    Uiso  ? C
   C51        1.0     0.456454     0.390727     0.053904    Uiso  ? C
   C52        1.0     0.660808     0.383980     0.053168    Uiso  ? C
   C53        1.0     0.754673     0.550159     0.055359    Uiso  ? C
   C54        1.0     0.550419     0.773001     0.062077    Uiso  ? C
   C55        1.0     0.757069     0.773308     0.057916    Uiso  ? C
   N1         1.0     0.451542     0.607786     0.055782    Uiso  ? N
   Fe1        1.0     0.655120     0.669818     0.079694    Uiso  ? Fe
   Ni1        1.0     0.566165     0.490933     0.053083    Uiso  ? Ni
   H1         1.0     0.602726     0.678735     0.164404    Uiso  ? H
   H2         1.0     0.643782     0.630621     0.168553    Uiso  ? H
