
#======================================================================
# CRYSTAL DATA
#----------------------------------------------------------------------
data_VESTA_phase_1

_chemical_name_common                  'CONTCAR\(2)                           '
_cell_length_a                         12.331300
_cell_length_b                         12.829200
_cell_length_c                         19.994400
_cell_angle_alpha                      89.996696
_cell_angle_beta                       89.998299
_cell_angle_gamma                      89.999496
_cell_volume                           3163.128245
_space_group_name_H-M_alt              'P 1'
_space_group_IT_number                 1

loop_
_space_group_symop_operation_xyz
   'x, y, z'

loop_
   _atom_site_label
   _atom_site_occupancy
   _atom_site_fract_x
   _atom_site_fract_y
   _atom_site_fract_z
   _atom_site_adp_type
   _atom_site_U_iso_or_equiv
   _atom_site_type_symbol
   C1         1.0     0.053250     0.053660     0.046363    Uiso  ? C
   C2         1.0     0.153653     0.108383     0.045087    Uiso  ? C
   C3         1.0     0.153366     0.219442     0.043976    Uiso  ? C
   C4         1.0     0.052898     0.274860     0.045330    Uiso  ? C
   C5         1.0     0.253952     0.052677     0.045919    Uiso  ? C
   C6         1.0     0.354190     0.108010     0.048798    Uiso  ? C
   C7         1.0     0.354042     0.219886     0.047258    Uiso  ? C
   C8         1.0     0.253458     0.274866     0.043007    Uiso  ? C
   C9         1.0     0.453906     0.051457     0.053743    Uiso  ? C
   C10        1.0     0.553104     0.108551     0.058589    Uiso  ? C
   C11        1.0     0.552982     0.220342     0.059448    Uiso  ? C
   C12        1.0     0.453572     0.277308     0.051920    Uiso  ? C
   C13        1.0     0.652867     0.050885     0.061269    Uiso  ? C
   C14        1.0     0.752794     0.108273     0.059128    Uiso  ? C
   C15        1.0     0.752850     0.220116     0.060432    Uiso  ? C
   C16        1.0     0.653036     0.277596     0.064961    Uiso  ? C
   C17        1.0     0.852895     0.053008     0.054277    Uiso  ? C
   C18        1.0     0.952768     0.108853     0.049945    Uiso  ? C
   C19        1.0     0.952512     0.220086     0.050038    Uiso  ? C
   C20        1.0     0.852537     0.276039     0.055572    Uiso  ? C
   C21        1.0     0.052746     0.385858     0.043353    Uiso  ? C
   C22        1.0     0.152107     0.441308     0.039495    Uiso  ? C
   C23        1.0     0.151906     0.552663     0.038235    Uiso  ? C
   C24        1.0     0.052767     0.608593     0.040155    Uiso  ? C
   C25        1.0     0.252438     0.386072     0.040201    Uiso  ? C
   C26        1.0     0.352061     0.442003     0.041485    Uiso  ? C
   C27        1.0     0.350910     0.555034     0.041466    Uiso  ? C
   C28        1.0     0.250909     0.609136     0.038709    Uiso  ? C
   C29        1.0     0.753482     0.445618     0.065943    Uiso  ? C
   C30        1.0     0.853110     0.387790     0.055726    Uiso  ? C
   C31        1.0     0.952771     0.441832     0.047599    Uiso  ? C
   C32        1.0     0.953456     0.552590     0.045575    Uiso  ? C
   C33        1.0     0.855004     0.608975     0.053717    Uiso  ? C
   C34        1.0     0.053677     0.720067     0.040399    Uiso  ? C
   C35        1.0     0.152826     0.775869     0.039941    Uiso  ? C
   C36        1.0     0.153478     0.886954     0.042501    Uiso  ? C
   C37        1.0     0.053415     0.942780     0.044868    Uiso  ? C
   C38        1.0     0.252243     0.719756     0.040371    Uiso  ? C
   C39        1.0     0.352626     0.773119     0.045989    Uiso  ? C
   C40        1.0     0.353957     0.884550     0.048106    Uiso  ? C
   C41        1.0     0.254032     0.941311     0.044942    Uiso  ? C
   C42        1.0     0.450668     0.712848     0.052308    Uiso  ? C
   C43        1.0     0.552817     0.879830     0.061731    Uiso  ? C
   C44        1.0     0.454138     0.939030     0.054198    Uiso  ? C
   C45        1.0     0.754287     0.884146     0.062235    Uiso  ? C
   C46        1.0     0.652858     0.939100     0.063760    Uiso  ? C
   C47        1.0     0.856502     0.721067     0.053498    Uiso  ? C
   C48        1.0     0.954463     0.776398     0.045340    Uiso  ? C
   C49        1.0     0.953652     0.887340     0.047578    Uiso  ? C
   C50        1.0     0.853262     0.941552     0.054049    Uiso  ? C
   C51        1.0     0.451850     0.388402     0.048962    Uiso  ? C
   C52        1.0     0.654402     0.387639     0.071546    Uiso  ? C
   C53        1.0     0.757343     0.557313     0.067264    Uiso  ? C
   C54        1.0     0.550156     0.767538     0.065771    Uiso  ? C
   C55        1.0     0.758638     0.773926     0.067072    Uiso  ? C
   N1         1.0     0.446584     0.605397     0.048332    Uiso  ? N
   Fe1        1.0     0.659223     0.680083     0.109418    Uiso  ? Fe
   Ni1        1.0     0.548790     0.486268     0.077181    Uiso  ? Ni
   O1         1.0     0.573416     0.573312     0.153551    Uiso  ? O
   O2         1.0     0.731639     0.694419     0.190060    Uiso  ? O
   H1         1.0     0.796115     0.738375     0.188921    Uiso  ? H
   H2         1.0     0.615074     0.547110     0.191500    Uiso  ? H
