
#======================================================================
# CRYSTAL DATA
#----------------------------------------------------------------------
data_VESTA_phase_1

_chemical_name_common                  'POSCAR\(2)                            '
_cell_length_a                         12.331300
_cell_length_b                         12.829200
_cell_length_c                         19.994400
_cell_angle_alpha                      89.996696
_cell_angle_beta                       89.998299
_cell_angle_gamma                      89.999496
_cell_volume                           3163.128245
_space_group_name_H-M_alt              'P 1'
_space_group_IT_number                 1

loop_
_space_group_symop_operation_xyz
   'x, y, z'

loop_
   _atom_site_label
   _atom_site_occupancy
   _atom_site_fract_x
   _atom_site_fract_y
   _atom_site_fract_z
   _atom_site_adp_type
   _atom_site_U_iso_or_equiv
   _atom_site_type_symbol
   C1         1.0     0.055028     0.052391     0.047595    Uiso  ? C
   C2         1.0     0.155545     0.107163     0.047088    Uiso  ? C
   C3         1.0     0.155325     0.218147     0.046290    Uiso  ? C
   C4         1.0     0.054838     0.273638     0.047670    Uiso  ? C
   C5         1.0     0.255900     0.051502     0.048252    Uiso  ? C
   C6         1.0     0.356128     0.106924     0.051202    Uiso  ? C
   C7         1.0     0.356016     0.218853     0.049599    Uiso  ? C
   C8         1.0     0.255389     0.273702     0.045497    Uiso  ? C
   C9         1.0     0.455798     0.050230     0.056179    Uiso  ? C
   C10        1.0     0.555021     0.107621     0.060707    Uiso  ? C
   C11        1.0     0.554970     0.219464     0.060852    Uiso  ? C
   C12        1.0     0.455538     0.276606     0.053698    Uiso  ? C
   C13        1.0     0.654636     0.049589     0.062896    Uiso  ? C
   C14        1.0     0.754635     0.107131     0.059990    Uiso  ? C
   C15        1.0     0.754774     0.218884     0.061759    Uiso  ? C
   C16        1.0     0.655143     0.276867     0.065937    Uiso  ? C
   C17        1.0     0.854652     0.051714     0.054494    Uiso  ? C
   C18        1.0     0.954628     0.107624     0.051030    Uiso  ? C
   C19        1.0     0.954518     0.218802     0.051884    Uiso  ? C
   C20        1.0     0.854660     0.274865     0.057436    Uiso  ? C
   C21        1.0     0.054682     0.384642     0.046026    Uiso  ? C
   C22        1.0     0.153968     0.440255     0.042055    Uiso  ? C
   C23        1.0     0.153432     0.551568     0.040577    Uiso  ? C
   C24        1.0     0.054283     0.607514     0.042174    Uiso  ? C
   C25        1.0     0.254209     0.384934     0.042615    Uiso  ? C
   C26        1.0     0.353613     0.440942     0.043501    Uiso  ? C
   C27        1.0     0.351970     0.553940     0.043287    Uiso  ? C
   C28        1.0     0.252283     0.608172     0.041022    Uiso  ? C
   C29        1.0     0.756316     0.444654     0.068893    Uiso  ? C
   C30        1.0     0.855509     0.386515     0.058421    Uiso  ? C
   C31        1.0     0.955004     0.440663     0.050410    Uiso  ? C
   C32        1.0     0.955181     0.551499     0.047939    Uiso  ? C
   C33        1.0     0.856635     0.607790     0.056112    Uiso  ? C
   C34        1.0     0.055220     0.719060     0.041863    Uiso  ? C
   C35        1.0     0.154604     0.774905     0.041755    Uiso  ? C
   C36        1.0     0.155229     0.885824     0.044171    Uiso  ? C
   C37        1.0     0.055136     0.941637     0.045639    Uiso  ? C
   C38        1.0     0.254150     0.718744     0.042477    Uiso  ? C
   C39        1.0     0.354655     0.772047     0.048160    Uiso  ? C
   C40        1.0     0.355707     0.883383     0.050845    Uiso  ? C
   C41        1.0     0.255885     0.940219     0.047343    Uiso  ? C
   C42        1.0     0.452783     0.711343     0.055124    Uiso  ? C
   C43        1.0     0.554587     0.878360     0.065444    Uiso  ? C
   C44        1.0     0.455932     0.937779     0.057112    Uiso  ? C
   C45        1.0     0.755686     0.882670     0.060672    Uiso  ? C
   C46        1.0     0.654613     0.937864     0.065344    Uiso  ? C
   C47        1.0     0.857432     0.719863     0.053010    Uiso  ? C
   C48        1.0     0.956057     0.775315     0.045409    Uiso  ? C
   C49        1.0     0.955238     0.886077     0.047137    Uiso  ? C
   C50        1.0     0.854757     0.940359     0.052943    Uiso  ? C
   C51        1.0     0.453812     0.387813     0.050032    Uiso  ? C
   C52        1.0     0.657417     0.386871     0.071825    Uiso  ? C
   C53        1.0     0.759688     0.556847     0.071995    Uiso  ? C
   C54        1.0     0.551132     0.766474     0.070790    Uiso  ? C
   C55        1.0     0.760153     0.772909     0.063763    Uiso  ? C
   N1         1.0     0.447566     0.604366     0.049378    Uiso  ? N
   Fe1        1.0     0.659662     0.678958     0.115329    Uiso  ? Fe
   Ni1        1.0     0.553521     0.488269     0.073276    Uiso  ? Ni
   O1         1.0     0.586305     0.573764     0.142852    Uiso  ? O
   O2         1.0     0.696435     0.752835     0.177165    Uiso  ? O
