
#======================================================================
# CRYSTAL DATA
#----------------------------------------------------------------------
data_VESTA_phase_1

_chemical_name_common                  'CONTCAR                               '
_cell_length_a                         12.331300
_cell_length_b                         12.829200
_cell_length_c                         19.994400
_cell_angle_alpha                      89.996696
_cell_angle_beta                       89.998299
_cell_angle_gamma                      89.999496
_cell_volume                           3163.128245
_space_group_name_H-M_alt              'P 1'
_space_group_IT_number                 1

loop_
_space_group_symop_operation_xyz
   'x, y, z'

loop_
   _atom_site_label
   _atom_site_occupancy
   _atom_site_fract_x
   _atom_site_fract_y
   _atom_site_fract_z
   _atom_site_adp_type
   _atom_site_U_iso_or_equiv
   _atom_site_type_symbol
   C1         1.0     0.056533     0.054653     0.055789    Uiso  ? C
   C2         1.0     0.156456     0.110620     0.055798    Uiso  ? C
   C3         1.0     0.157241     0.221713     0.055779    Uiso  ? C
   C4         1.0     0.057425     0.276212     0.055753    Uiso  ? C
   C5         1.0     0.256328     0.055751     0.055805    Uiso  ? C
   C6         1.0     0.356495     0.111958     0.055776    Uiso  ? C
   C7         1.0     0.357590     0.223966     0.055744    Uiso  ? C
   C8         1.0     0.257239     0.278251     0.055767    Uiso  ? C
   C9         1.0     0.455408     0.055571     0.055751    Uiso  ? C
   C10        1.0     0.555721     0.111386     0.055719    Uiso  ? C
   C11        1.0     0.556410     0.221974     0.055701    Uiso  ? C
   C12        1.0     0.457766     0.281305     0.055694    Uiso  ? C
   C13        1.0     0.655667     0.053623     0.055694    Uiso  ? C
   C14        1.0     0.756455     0.109070     0.055698    Uiso  ? C
   C15        1.0     0.757480     0.220061     0.055690    Uiso  ? C
   C16        1.0     0.657738     0.276745     0.055676    Uiso  ? C
   C17        1.0     0.856158     0.053709     0.055716    Uiso  ? C
   C18        1.0     0.956667     0.109258     0.055744    Uiso  ? C
   C19        1.0     0.957658     0.219874     0.055724    Uiso  ? C
   C20        1.0     0.858020     0.274754     0.055692    Uiso  ? C
   C21        1.0     0.057955     0.387449     0.055746    Uiso  ? C
   C22        1.0     0.156763     0.443656     0.055770    Uiso  ? C
   C23        1.0     0.155546     0.554867     0.055773    Uiso  ? C
   C24        1.0     0.055698     0.609694     0.055760    Uiso  ? C
   C25        1.0     0.256960     0.389348     0.055762    Uiso  ? C
   C26        1.0     0.356929     0.445635     0.055719    Uiso  ? C
   C27        1.0     0.355932     0.558745     0.055707    Uiso  ? C
   C28        1.0     0.254890     0.611733     0.055763    Uiso  ? C
   C29        1.0     0.760608     0.440177     0.055632    Uiso  ? C
   C30        1.0     0.860048     0.385255     0.055673    Uiso  ? C
   C31        1.0     0.958152     0.442223     0.055706    Uiso  ? C
   C32        1.0     0.955854     0.553271     0.055713    Uiso  ? C
   C33        1.0     0.854593     0.607150     0.055665    Uiso  ? C
   C34        1.0     0.055361     0.721199     0.055776    Uiso  ? C
   C35        1.0     0.154121     0.777568     0.055802    Uiso  ? C
   C36        1.0     0.155185     0.888787     0.055816    Uiso  ? C
   C37        1.0     0.055581     0.943660     0.055795    Uiso  ? C
   C38        1.0     0.253476     0.722369     0.055778    Uiso  ? C
   C39        1.0     0.352680     0.777316     0.055744    Uiso  ? C
   C40        1.0     0.354752     0.888740     0.055772    Uiso  ? C
   C41        1.0     0.255273     0.944546     0.055813    Uiso  ? C
   C42        1.0     0.451007     0.719767     0.055664    Uiso  ? C
   C43        1.0     0.553480     0.886472     0.055659    Uiso  ? C
   C44        1.0     0.454541     0.944222     0.055734    Uiso  ? C
   C45        1.0     0.754852     0.886534     0.055659    Uiso  ? C
   C46        1.0     0.654806     0.942917     0.055661    Uiso  ? C
   C47        1.0     0.856121     0.720824     0.055681    Uiso  ? C
   C48        1.0     0.955678     0.776550     0.055745    Uiso  ? C
   C49        1.0     0.955546     0.887726     0.055755    Uiso  ? C
   C50        1.0     0.855418     0.942566     0.055712    Uiso  ? C
   C51        1.0     0.456875     0.393141     0.055669    Uiso  ? C
   C52        1.0     0.661646     0.385279     0.055636    Uiso  ? C
   C53        1.0     0.754780     0.550783     0.055623    Uiso  ? C
   C54        1.0     0.549876     0.777006     0.055619    Uiso  ? C
   C55        1.0     0.757622     0.776378     0.055643    Uiso  ? C
   N1         1.0     0.452292     0.610847     0.055642    Uiso  ? N
   Fe1        1.0     0.652146     0.671599     0.055606    Uiso  ? Fe
   Ni1        1.0     0.567869     0.492149     0.055618    Uiso  ? Ni
