
#======================================================================
# CRYSTAL DATA
#----------------------------------------------------------------------
data_VESTA_phase_1

_chemical_name_common                  'CONTCAR\(5)                           '
_cell_length_a                         12.331300
_cell_length_b                         12.829200
_cell_length_c                         19.994400
_cell_angle_alpha                      89.996696
_cell_angle_beta                       89.998299
_cell_angle_gamma                      89.999496
_cell_volume                           3163.128245
_space_group_name_H-M_alt              'P 1'
_space_group_IT_number                 1

loop_
_space_group_symop_operation_xyz
   'x, y, z'

loop_
   _atom_site_label
   _atom_site_occupancy
   _atom_site_fract_x
   _atom_site_fract_y
   _atom_site_fract_z
   _atom_site_adp_type
   _atom_site_U_iso_or_equiv
   _atom_site_type_symbol
   C1         1.0     0.055707     0.054579     0.051058    Uiso  ? C
   C2         1.0     0.156003     0.110294     0.051289    Uiso  ? C
   C3         1.0     0.156561     0.221070     0.049880    Uiso  ? C
   C4         1.0     0.056445     0.275800     0.048476    Uiso  ? C
   C5         1.0     0.256437     0.055784     0.053514    Uiso  ? C
   C6         1.0     0.356822     0.111883     0.056787    Uiso  ? C
   C7         1.0     0.357323     0.223663     0.055954    Uiso  ? C
   C8         1.0     0.256484     0.277150     0.051005    Uiso  ? C
   C9         1.0     0.456415     0.056080     0.060888    Uiso  ? C
   C10        1.0     0.556691     0.112799     0.063863    Uiso  ? C
   C11        1.0     0.557360     0.225295     0.064963    Uiso  ? C
   C12        1.0     0.457062     0.282284     0.060879    Uiso  ? C
   C13        1.0     0.655182     0.052476     0.063140    Uiso  ? C
   C14        1.0     0.755083     0.109216     0.059190    Uiso  ? C
   C15        1.0     0.756704     0.221534     0.058926    Uiso  ? C
   C16        1.0     0.659344     0.281879     0.065017    Uiso  ? C
   C17        1.0     0.854715     0.053135     0.055258    Uiso  ? C
   C18        1.0     0.955300     0.109097     0.052354    Uiso  ? C
   C19        1.0     0.956487     0.220136     0.051202    Uiso  ? C
   C20        1.0     0.856895     0.276026     0.053704    Uiso  ? C
   C21        1.0     0.056630     0.386902     0.046039    Uiso  ? C
   C22        1.0     0.155375     0.443198     0.045712    Uiso  ? C
   C23        1.0     0.155887     0.554757     0.045099    Uiso  ? C
   C24        1.0     0.056953     0.609914     0.044411    Uiso  ? C
   C25        1.0     0.254959     0.388001     0.048827    Uiso  ? C
   C26        1.0     0.353061     0.444546     0.052711    Uiso  ? C
   C27        1.0     0.354132     0.557196     0.053186    Uiso  ? C
   C28        1.0     0.254849     0.611710     0.048220    Uiso  ? C
   C29        1.0     0.758656     0.443760     0.056930    Uiso  ? C
   C30        1.0     0.857763     0.387047     0.051133    Uiso  ? C
   C31        1.0     0.957247     0.442338     0.046284    Uiso  ? C
   C32        1.0     0.958193     0.552983     0.045128    Uiso  ? C
   C33        1.0     0.858816     0.607572     0.047313    Uiso  ? C
   C34        1.0     0.056806     0.721605     0.045703    Uiso  ? C
   C35        1.0     0.155335     0.777865     0.047650    Uiso  ? C
   C36        1.0     0.155354     0.888946     0.049785    Uiso  ? C
   C37        1.0     0.055258     0.943741     0.050156    Uiso  ? C
   C38        1.0     0.254728     0.722373     0.049583    Uiso  ? C
   C39        1.0     0.353530     0.777678     0.055378    Uiso  ? C
   C40        1.0     0.354760     0.888969     0.056446    Uiso  ? C
   C41        1.0     0.255340     0.944753     0.052900    Uiso  ? C
   C42        1.0     0.452126     0.721030     0.063140    Uiso  ? C
   C43        1.0     0.552382     0.884009     0.065975    Uiso  ? C
   C44        1.0     0.454728     0.944035     0.061213    Uiso  ? C
   C45        1.0     0.754512     0.882441     0.059090    Uiso  ? C
   C46        1.0     0.654529     0.939788     0.063996    Uiso  ? C
   C47        1.0     0.858955     0.720252     0.049871    Uiso  ? C
   C48        1.0     0.957225     0.776832     0.048029    Uiso  ? C
   C49        1.0     0.955356     0.887699     0.050580    Uiso  ? C
   C50        1.0     0.854263     0.941257     0.054595    Uiso  ? C
   C51        1.0     0.452889     0.393658     0.060145    Uiso  ? C
   C52        1.0     0.759118     0.555511     0.052599    Uiso  ? C
   C53        1.0     0.758630     0.770775     0.057064    Uiso  ? C
   C54        1.0     0.453825     0.608663     0.062957    Uiso  ? C
   N1         1.0     0.663585     0.388903     0.068400    Uiso  ? N
   N2         1.0     0.547595     0.777546     0.070178    Uiso  ? N
   Fe1        1.0     0.650551     0.663433     0.076166    Uiso  ? Fe
   Ni1        1.0     0.557078     0.492896     0.084142    Uiso  ? Ni
   O1         1.0     0.625720     0.583248     0.144636    Uiso  ? O
