
#======================================================================
# CRYSTAL DATA
#----------------------------------------------------------------------
data_VESTA_phase_1

_chemical_name_common                  'CONTCAR\(5)                           '
_cell_length_a                         12.331300
_cell_length_b                         12.829200
_cell_length_c                         19.994400
_cell_angle_alpha                      89.996696
_cell_angle_beta                       89.998299
_cell_angle_gamma                      89.999496
_cell_volume                           3163.128245
_space_group_name_H-M_alt              'P 1'
_space_group_IT_number                 1

loop_
_space_group_symop_operation_xyz
   'x, y, z'

loop_
   _atom_site_label
   _atom_site_occupancy
   _atom_site_fract_x
   _atom_site_fract_y
   _atom_site_fract_z
   _atom_site_adp_type
   _atom_site_U_iso_or_equiv
   _atom_site_type_symbol
   C1         1.0     0.055138     0.053313     0.054683    Uiso  ? C
   C2         1.0     0.155384     0.109720     0.054307    Uiso  ? C
   C3         1.0     0.156699     0.220583     0.053935    Uiso  ? C
   C4         1.0     0.056591     0.275059     0.053368    Uiso  ? C
   C5         1.0     0.255709     0.055472     0.054310    Uiso  ? C
   C6         1.0     0.356142     0.111701     0.055176    Uiso  ? C
   C7         1.0     0.357434     0.223441     0.055520    Uiso  ? C
   C8         1.0     0.256706     0.277059     0.054292    Uiso  ? C
   C9         1.0     0.455771     0.055697     0.055733    Uiso  ? C
   C10        1.0     0.556406     0.111621     0.057335    Uiso  ? C
   C11        1.0     0.557557     0.223775     0.058117    Uiso  ? C
   C12        1.0     0.457887     0.281706     0.056999    Uiso  ? C
   C13        1.0     0.654794     0.051546     0.057862    Uiso  ? C
   C14        1.0     0.754983     0.107811     0.057124    Uiso  ? C
   C15        1.0     0.757147     0.219688     0.056711    Uiso  ? C
   C16        1.0     0.659174     0.279492     0.058615    Uiso  ? C
   C17        1.0     0.854240     0.051013     0.056279    Uiso  ? C
   C18        1.0     0.954756     0.107468     0.055025    Uiso  ? C
   C19        1.0     0.956668     0.218758     0.054113    Uiso  ? C
   C20        1.0     0.857350     0.274613     0.054656    Uiso  ? C
   C21        1.0     0.057307     0.386262     0.052650    Uiso  ? C
   C22        1.0     0.156077     0.442853     0.052522    Uiso  ? C
   C23        1.0     0.156249     0.554237     0.052123    Uiso  ? C
   C24        1.0     0.055991     0.608928     0.052595    Uiso  ? C
   C25        1.0     0.256039     0.388119     0.053517    Uiso  ? C
   C26        1.0     0.354669     0.444933     0.054360    Uiso  ? C
   C27        1.0     0.356544     0.557695     0.053288    Uiso  ? C
   C28        1.0     0.255194     0.611186     0.052114    Uiso  ? C
   C29        1.0     0.759771     0.442066     0.055967    Uiso  ? C
   C30        1.0     0.858860     0.385709     0.053655    Uiso  ? C
   C31        1.0     0.957880     0.441423     0.052648    Uiso  ? C
   C32        1.0     0.957238     0.551980     0.053116    Uiso  ? C
   C33        1.0     0.856577     0.605940     0.054851    Uiso  ? C
   C34        1.0     0.055248     0.720261     0.053105    Uiso  ? C
   C35        1.0     0.153809     0.776840     0.052709    Uiso  ? C
   C36        1.0     0.154161     0.887926     0.053492    Uiso  ? C
   C37        1.0     0.053885     0.942375     0.054613    Uiso  ? C
   C38        1.0     0.253501     0.721758     0.052102    Uiso  ? C
   C39        1.0     0.351949     0.778003     0.052378    Uiso  ? C
   C40        1.0     0.353406     0.889045     0.053229    Uiso  ? C
   C41        1.0     0.253955     0.944350     0.053552    Uiso  ? C
   C42        1.0     0.451387     0.722508     0.052983    Uiso  ? C
   C43        1.0     0.551614     0.885097     0.056096    Uiso  ? C
   C44        1.0     0.453559     0.944292     0.054567    Uiso  ? C
   C45        1.0     0.752494     0.879606     0.059112    Uiso  ? C
   C46        1.0     0.653767     0.939129     0.058370    Uiso  ? C
   C47        1.0     0.856806     0.718002     0.056678    Uiso  ? C
   C48        1.0     0.955005     0.774853     0.054833    Uiso  ? C
   C49        1.0     0.954069     0.885897     0.055550    Uiso  ? C
   C50        1.0     0.852732     0.938811     0.056947    Uiso  ? C
   C51        1.0     0.454638     0.392919     0.056911    Uiso  ? C
   C52        1.0     0.755778     0.554133     0.055894    Uiso  ? C
   C53        1.0     0.754312     0.766389     0.060161    Uiso  ? C
   C54        1.0     0.457280     0.610643     0.054219    Uiso  ? C
   N1         1.0     0.663832     0.385907     0.060066    Uiso  ? N
   N2         1.0     0.547055     0.779185     0.055292    Uiso  ? N
   Fe1        1.0     0.636764     0.665197     0.066573    Uiso  ? Fe
   Ni1        1.0     0.565523     0.492640     0.062988    Uiso  ? Ni
   H1         1.0     0.662235     0.687179     0.136928    Uiso  ? H
   H2         1.0     0.629666     0.580246     0.120655    Uiso  ? H
