
#======================================================================
# CRYSTAL DATA
#----------------------------------------------------------------------
data_VESTA_phase_1

_chemical_name_common                  'POSCAR\(2)                            '
_cell_length_a                         12.331300
_cell_length_b                         12.829200
_cell_length_c                         19.994400
_cell_angle_alpha                      89.996696
_cell_angle_beta                       89.998299
_cell_angle_gamma                      89.999496
_cell_volume                           3163.128245
_space_group_name_H-M_alt              'P 1'
_space_group_IT_number                 1

loop_
_space_group_symop_operation_xyz
   'x, y, z'

loop_
   _atom_site_label
   _atom_site_occupancy
   _atom_site_fract_x
   _atom_site_fract_y
   _atom_site_fract_z
   _atom_site_adp_type
   _atom_site_U_iso_or_equiv
   _atom_site_type_symbol
   C1         1.0     0.056124     0.054180     0.055779    Uiso  ? C
   C2         1.0     0.156245     0.110637     0.055804    Uiso  ? C
   C3         1.0     0.157427     0.221591     0.055786    Uiso  ? C
   C4         1.0     0.057583     0.275924     0.055758    Uiso  ? C
   C5         1.0     0.256411     0.056419     0.055813    Uiso  ? C
   C6         1.0     0.356911     0.112823     0.055767    Uiso  ? C
   C7         1.0     0.358158     0.224629     0.055733    Uiso  ? C
   C8         1.0     0.257427     0.278188     0.055769    Uiso  ? C
   C9         1.0     0.456240     0.056945     0.055740    Uiso  ? C
   C10        1.0     0.556925     0.112580     0.055701    Uiso  ? C
   C11        1.0     0.557983     0.224429     0.055676    Uiso  ? C
   C12        1.0     0.458680     0.282781     0.055680    Uiso  ? C
   C13        1.0     0.655434     0.052668     0.055672    Uiso  ? C
   C14        1.0     0.755965     0.108385     0.055680    Uiso  ? C
   C15        1.0     0.758107     0.220043     0.055677    Uiso  ? C
   C16        1.0     0.660084     0.279240     0.055662    Uiso  ? C
   C17        1.0     0.855288     0.052247     0.055693    Uiso  ? C
   C18        1.0     0.955970     0.108406     0.055734    Uiso  ? C
   C19        1.0     0.957782     0.219414     0.055726    Uiso  ? C
   C20        1.0     0.858416     0.274720     0.055689    Uiso  ? C
   C21        1.0     0.058141     0.387185     0.055753    Uiso  ? C
   C22        1.0     0.156748     0.443719     0.055781    Uiso  ? C
   C23        1.0     0.156500     0.555329     0.055786    Uiso  ? C
   C24        1.0     0.056458     0.609614     0.055766    Uiso  ? C
   C25        1.0     0.256715     0.389168     0.055770    Uiso  ? C
   C26        1.0     0.355784     0.445901     0.055722    Uiso  ? C
   C27        1.0     0.357576     0.558933     0.055724    Uiso  ? C
   C28        1.0     0.256140     0.612116     0.055780    Uiso  ? C
   C29        1.0     0.760738     0.440979     0.055640    Uiso  ? C
   C30        1.0     0.859957     0.385568     0.055672    Uiso  ? C
   C31        1.0     0.958446     0.442070     0.055710    Uiso  ? C
   C32        1.0     0.956927     0.552712     0.055708    Uiso  ? C
   C33        1.0     0.855532     0.605837     0.055654    Uiso  ? C
   C34        1.0     0.055859     0.721171     0.055786    Uiso  ? C
   C35        1.0     0.154351     0.777610     0.055822    Uiso  ? C
   C36        1.0     0.154828     0.888837     0.055826    Uiso  ? C
   C37        1.0     0.054942     0.943229     0.055788    Uiso  ? C
   C38        1.0     0.254059     0.722686     0.055804    Uiso  ? C
   C39        1.0     0.352398     0.778958     0.055770    Uiso  ? C
   C40        1.0     0.354039     0.889997     0.055791    Uiso  ? C
   C41        1.0     0.254676     0.945331     0.055828    Uiso  ? C
   C42        1.0     0.451809     0.723585     0.055691    Uiso  ? C
   C43        1.0     0.551965     0.886825     0.055665    Uiso  ? C
   C44        1.0     0.454056     0.945469     0.055741    Uiso  ? C
   C45        1.0     0.753690     0.881981     0.055633    Uiso  ? C
   C46        1.0     0.654405     0.940721     0.055640    Uiso  ? C
   C47        1.0     0.856896     0.719164     0.055664    Uiso  ? C
   C48        1.0     0.955831     0.775689     0.055739    Uiso  ? C
   C49        1.0     0.954909     0.886717     0.055738    Uiso  ? C
   C50        1.0     0.854028     0.940322     0.055678    Uiso  ? C
   C51        1.0     0.455412     0.394236     0.055657    Uiso  ? C
   C52        1.0     0.754644     0.552448     0.055628    Uiso  ? C
   C53        1.0     0.756449     0.769922     0.055621    Uiso  ? C
   C54        1.0     0.458962     0.611433     0.055675    Uiso  ? C
   N1         1.0     0.664861     0.385067     0.055635    Uiso  ? N
   N2         1.0     0.546830     0.781107     0.055633    Uiso  ? N
   Fe1        1.0     0.639661     0.668086     0.055631    Uiso  ? Fe
   Ni1        1.0     0.568993     0.492627     0.055631    Uiso  ? Ni
