
#======================================================================
# CRYSTAL DATA
#----------------------------------------------------------------------
data_VESTA_phase_1

_chemical_name_common                  'CONTCAR\(5)                           '
_cell_length_a                         12.331300
_cell_length_b                         12.829200
_cell_length_c                         19.994400
_cell_angle_alpha                      89.996696
_cell_angle_beta                       89.998299
_cell_angle_gamma                      89.999496
_cell_volume                           3163.128245
_space_group_name_H-M_alt              'P 1'
_space_group_IT_number                 1

loop_
_space_group_symop_operation_xyz
   'x, y, z'

loop_
   _atom_site_label
   _atom_site_occupancy
   _atom_site_fract_x
   _atom_site_fract_y
   _atom_site_fract_z
   _atom_site_adp_type
   _atom_site_U_iso_or_equiv
   _atom_site_type_symbol
   C1         1.0     0.055940     0.055468     0.050858    Uiso  ? C
   C2         1.0     0.156316     0.111106     0.050889    Uiso  ? C
   C3         1.0     0.157007     0.222053     0.050111    Uiso  ? C
   C4         1.0     0.056700     0.276257     0.049452    Uiso  ? C
   C5         1.0     0.256324     0.056240     0.052475    Uiso  ? C
   C6         1.0     0.356808     0.111561     0.055619    Uiso  ? C
   C7         1.0     0.357576     0.223550     0.055324    Uiso  ? C
   C8         1.0     0.257263     0.278152     0.051190    Uiso  ? C
   C9         1.0     0.456071     0.054983     0.059245    Uiso  ? C
   C10        1.0     0.556093     0.110844     0.062734    Uiso  ? C
   C11        1.0     0.556703     0.222956     0.064060    Uiso  ? C
   C12        1.0     0.457358     0.281047     0.059634    Uiso  ? C
   C13        1.0     0.654811     0.051215     0.062884    Uiso  ? C
   C14        1.0     0.755019     0.108655     0.060054    Uiso  ? C
   C15        1.0     0.756132     0.221026     0.060790    Uiso  ? C
   C16        1.0     0.657348     0.279801     0.066384    Uiso  ? C
   C17        1.0     0.854945     0.053226     0.055856    Uiso  ? C
   C18        1.0     0.955354     0.109571     0.052803    Uiso  ? C
   C19        1.0     0.956210     0.220666     0.052171    Uiso  ? C
   C20        1.0     0.856508     0.276164     0.055394    Uiso  ? C
   C21        1.0     0.057540     0.387249     0.047785    Uiso  ? C
   C22        1.0     0.156784     0.443522     0.047080    Uiso  ? C
   C23        1.0     0.156518     0.554786     0.046120    Uiso  ? C
   C24        1.0     0.057746     0.610117     0.045621    Uiso  ? C
   C25        1.0     0.256986     0.389447     0.049562    Uiso  ? C
   C26        1.0     0.356642     0.446205     0.052392    Uiso  ? C
   C27        1.0     0.355113     0.559537     0.052401    Uiso  ? C
   C28        1.0     0.255005     0.612113     0.048248    Uiso  ? C
   C29        1.0     0.760085     0.445434     0.061456    Uiso  ? C
   C30        1.0     0.858235     0.387542     0.053718    Uiso  ? C
   C31        1.0     0.958045     0.442450     0.048864    Uiso  ? C
   C32        1.0     0.959046     0.553324     0.047712    Uiso  ? C
   C33        1.0     0.860601     0.608906     0.051708    Uiso  ? C
   C34        1.0     0.057022     0.721833     0.046067    Uiso  ? C
   C35        1.0     0.155123     0.778442     0.047013    Uiso  ? C
   C36        1.0     0.155271     0.889612     0.048755    Uiso  ? C
   C37        1.0     0.055516     0.944623     0.049568    Uiso  ? C
   C38        1.0     0.253837     0.722777     0.048517    Uiso  ? C
   C39        1.0     0.352270     0.778125     0.052959    Uiso  ? C
   C40        1.0     0.354178     0.889176     0.054511    Uiso  ? C
   C41        1.0     0.255222     0.945149     0.051497    Uiso  ? C
   C42        1.0     0.449323     0.721044     0.059750    Uiso  ? C
   C43        1.0     0.551717     0.882263     0.064526    Uiso  ? C
   C44        1.0     0.454685     0.942813     0.059409    Uiso  ? C
   C45        1.0     0.755093     0.882299     0.059357    Uiso  ? C
   C46        1.0     0.653891     0.938269     0.063487    Uiso  ? C
   C47        1.0     0.860196     0.721257     0.051585    Uiso  ? C
   C48        1.0     0.957975     0.777592     0.048249    Uiso  ? C
   C49        1.0     0.955808     0.888394     0.050416    Uiso  ? C
   C50        1.0     0.854610     0.941461     0.054988    Uiso  ? C
   C51        1.0     0.456382     0.392915     0.058223    Uiso  ? C
   C52        1.0     0.660730     0.390316     0.070707    Uiso  ? C
   C53        1.0     0.761453     0.557191     0.061282    Uiso  ? C
   C54        1.0     0.759661     0.771216     0.058196    Uiso  ? C
   N1         1.0     0.450519     0.613326     0.058601    Uiso  ? N
   N2         1.0     0.545363     0.773968     0.068841    Uiso  ? N
   Fe1        1.0     0.653726     0.664513     0.080471    Uiso  ? Fe
   Ni1        1.0     0.559757     0.493802     0.076826    Uiso  ? Ni
   H1         1.0     0.611550     0.570464     0.134296    Uiso  ? H
