
#======================================================================
# CRYSTAL DATA
#----------------------------------------------------------------------
data_VESTA_phase_1

_chemical_name_common                  'CONTCAR\(5)                           '
_cell_length_a                         12.331300
_cell_length_b                         12.829200
_cell_length_c                         19.994400
_cell_angle_alpha                      89.996696
_cell_angle_beta                       89.998299
_cell_angle_gamma                      89.999496
_cell_volume                           3163.128245
_space_group_name_H-M_alt              'P 1'
_space_group_IT_number                 1

loop_
_space_group_symop_operation_xyz
   'x, y, z'

loop_
   _atom_site_label
   _atom_site_occupancy
   _atom_site_fract_x
   _atom_site_fract_y
   _atom_site_fract_z
   _atom_site_adp_type
   _atom_site_U_iso_or_equiv
   _atom_site_type_symbol
   C1         1.0     0.055861     0.055860     0.048911    Uiso  ? C
   C2         1.0     0.156271     0.111600     0.049093    Uiso  ? C
   C3         1.0     0.157044     0.222637     0.048461    Uiso  ? C
   C4         1.0     0.056704     0.276810     0.047728    Uiso  ? C
   C5         1.0     0.256194     0.056688     0.050841    Uiso  ? C
   C6         1.0     0.356737     0.111995     0.054207    Uiso  ? C
   C7         1.0     0.357589     0.223902     0.054102    Uiso  ? C
   C8         1.0     0.257387     0.278754     0.049842    Uiso  ? C
   C9         1.0     0.455922     0.055441     0.057937    Uiso  ? C
   C10        1.0     0.556034     0.110996     0.061352    Uiso  ? C
   C11        1.0     0.556698     0.222788     0.062858    Uiso  ? C
   C12        1.0     0.457522     0.280955     0.058955    Uiso  ? C
   C13        1.0     0.654876     0.051604     0.061374    Uiso  ? C
   C14        1.0     0.755130     0.108880     0.058315    Uiso  ? C
   C15        1.0     0.756258     0.221117     0.058976    Uiso  ? C
   C16        1.0     0.657401     0.279319     0.064597    Uiso  ? C
   C17        1.0     0.854934     0.053514     0.054015    Uiso  ? C
   C18        1.0     0.955272     0.110024     0.050883    Uiso  ? C
   C19        1.0     0.956081     0.221201     0.050450    Uiso  ? C
   C20        1.0     0.856385     0.276728     0.053932    Uiso  ? C
   C21        1.0     0.057548     0.387735     0.045950    Uiso  ? C
   C22        1.0     0.156982     0.443961     0.045391    Uiso  ? C
   C23        1.0     0.156645     0.555258     0.044359    Uiso  ? C
   C24        1.0     0.057669     0.610375     0.043375    Uiso  ? C
   C25        1.0     0.257411     0.390068     0.048280    Uiso  ? C
   C26        1.0     0.357413     0.446887     0.051860    Uiso  ? C
   C27        1.0     0.355840     0.560256     0.051807    Uiso  ? C
   C28        1.0     0.255338     0.612526     0.046940    Uiso  ? C
   C29        1.0     0.758975     0.446320     0.059466    Uiso  ? C
   C30        1.0     0.857763     0.388220     0.052452    Uiso  ? C
   C31        1.0     0.957728     0.442921     0.046934    Uiso  ? C
   C32        1.0     0.958654     0.553654     0.045170    Uiso  ? C
   C33        1.0     0.859866     0.608903     0.049093    Uiso  ? C
   C34        1.0     0.056832     0.722087     0.043947    Uiso  ? C
   C35        1.0     0.155050     0.778726     0.045244    Uiso  ? C
   C36        1.0     0.155151     0.889971     0.046993    Uiso  ? C
   C37        1.0     0.055441     0.944954     0.047656    Uiso  ? C
   C38        1.0     0.253902     0.723194     0.047189    Uiso  ? C
   C39        1.0     0.352341     0.778752     0.051853    Uiso  ? C
   C40        1.0     0.354059     0.889732     0.053172    Uiso  ? C
   C41        1.0     0.255062     0.945628     0.049917    Uiso  ? C
   C42        1.0     0.449682     0.721929     0.058782    Uiso  ? C
   C43        1.0     0.551676     0.883246     0.063189    Uiso  ? C
   C44        1.0     0.454516     0.943424     0.058092    Uiso  ? C
   C45        1.0     0.754912     0.882733     0.058231    Uiso  ? C
   C46        1.0     0.653905     0.938926     0.062300    Uiso  ? C
   C47        1.0     0.859582     0.721448     0.049400    Uiso  ? C
   C48        1.0     0.957653     0.777833     0.046164    Uiso  ? C
   C49        1.0     0.955600     0.888604     0.048539    Uiso  ? C
   C50        1.0     0.854481     0.941749     0.053221    Uiso  ? C
   C51        1.0     0.456772     0.392746     0.058864    Uiso  ? C
   C52        1.0     0.660282     0.389417     0.068920    Uiso  ? C
   C53        1.0     0.760542     0.557985     0.058290    Uiso  ? C
   C54        1.0     0.759656     0.771737     0.057547    Uiso  ? C
   N1         1.0     0.451095     0.614339     0.058486    Uiso  ? N
   N2         1.0     0.545791     0.775216     0.067222    Uiso  ? N
   Fe1        1.0     0.654464     0.668597     0.083815    Uiso  ? Fe
   Ni1        1.0     0.559176     0.489929     0.081526    Uiso  ? Ni
   O1         1.0     0.612545     0.582501     0.157461    Uiso  ? O
   H1         1.0     0.549320     0.608233     0.181742    Uiso  ? H
