
#======================================================================
# CRYSTAL DATA
#----------------------------------------------------------------------
data_VESTA_phase_1

_chemical_name_common                  'CONTCAR\(5)                           '
_cell_length_a                         12.331300
_cell_length_b                         12.829200
_cell_length_c                         19.994400
_cell_angle_alpha                      89.996696
_cell_angle_beta                       89.998299
_cell_angle_gamma                      89.999496
_cell_volume                           3163.128245
_space_group_name_H-M_alt              'P 1'
_space_group_IT_number                 1

loop_
_space_group_symop_operation_xyz
   'x, y, z'

loop_
   _atom_site_label
   _atom_site_occupancy
   _atom_site_fract_x
   _atom_site_fract_y
   _atom_site_fract_z
   _atom_site_adp_type
   _atom_site_U_iso_or_equiv
   _atom_site_type_symbol
   C1         1.0     0.055800     0.055436     0.050650    Uiso  ? C
   C2         1.0     0.156193     0.111092     0.050579    Uiso  ? C
   C3         1.0     0.156870     0.222048     0.049446    Uiso  ? C
   C4         1.0     0.056479     0.276309     0.048291    Uiso  ? C
   C5         1.0     0.256129     0.056087     0.052275    Uiso  ? C
   C6         1.0     0.356619     0.111261     0.055775    Uiso  ? C
   C7         1.0     0.357303     0.223058     0.055652    Uiso  ? C
   C8         1.0     0.257189     0.278047     0.050726    Uiso  ? C
   C9         1.0     0.456001     0.054721     0.059600    Uiso  ? C
   C10        1.0     0.555988     0.110358     0.063389    Uiso  ? C
   C11        1.0     0.556602     0.222375     0.065209    Uiso  ? C
   C12        1.0     0.457026     0.280179     0.061082    Uiso  ? C
   C13        1.0     0.654801     0.050897     0.063492    Uiso  ? C
   C14        1.0     0.754936     0.108525     0.060323    Uiso  ? C
   C15        1.0     0.755906     0.220839     0.060717    Uiso  ? C
   C16        1.0     0.657032     0.279320     0.066872    Uiso  ? C
   C17        1.0     0.854897     0.053151     0.056045    Uiso  ? C
   C18        1.0     0.955140     0.109619     0.052575    Uiso  ? C
   C19        1.0     0.955847     0.220798     0.051497    Uiso  ? C
   C20        1.0     0.856122     0.276369     0.054948    Uiso  ? C
   C21        1.0     0.057318     0.387175     0.045833    Uiso  ? C
   C22        1.0     0.156913     0.443400     0.044923    Uiso  ? C
   C23        1.0     0.156891     0.554694     0.043777    Uiso  ? C
   C24        1.0     0.058014     0.610094     0.043313    Uiso  ? C
   C25        1.0     0.257187     0.389372     0.048311    Uiso  ? C
   C26        1.0     0.357165     0.446062     0.052117    Uiso  ? C
   C27        1.0     0.355893     0.559541     0.051072    Uiso  ? C
   C28        1.0     0.255437     0.611904     0.046221    Uiso  ? C
   C29        1.0     0.758798     0.446069     0.060308    Uiso  ? C
   C30        1.0     0.857514     0.387862     0.052871    Uiso  ? C
   C31        1.0     0.957605     0.442405     0.046850    Uiso  ? C
   C32        1.0     0.959153     0.553296     0.045267    Uiso  ? C
   C33        1.0     0.861030     0.608994     0.049545    Uiso  ? C
   C34        1.0     0.057217     0.721696     0.044397    Uiso  ? C
   C35        1.0     0.155322     0.778335     0.045493    Uiso  ? C
   C36        1.0     0.155307     0.889460     0.048038    Uiso  ? C
   C37        1.0     0.055459     0.944628     0.049380    Uiso  ? C
   C38        1.0     0.254111     0.722678     0.046908    Uiso  ? C
   C39        1.0     0.352318     0.778274     0.052161    Uiso  ? C
   C40        1.0     0.354155     0.889065     0.053995    Uiso  ? C
   C41        1.0     0.255077     0.945050     0.051014    Uiso  ? C
   C42        1.0     0.449787     0.721154     0.058875    Uiso  ? C
   C43        1.0     0.551669     0.882147     0.064501    Uiso  ? C
   C44        1.0     0.454687     0.942683     0.059306    Uiso  ? C
   C45        1.0     0.755247     0.882039     0.060804    Uiso  ? C
   C46        1.0     0.653906     0.938061     0.064413    Uiso  ? C
   C47        1.0     0.860579     0.721150     0.051700    Uiso  ? C
   C48        1.0     0.958176     0.777544     0.047804    Uiso  ? C
   C49        1.0     0.955832     0.888338     0.050578    Uiso  ? C
   C50        1.0     0.854641     0.941368     0.055541    Uiso  ? C
   C51        1.0     0.455947     0.391647     0.060946    Uiso  ? C
   C52        1.0     0.660079     0.389936     0.071382    Uiso  ? C
   C53        1.0     0.761772     0.557492     0.058227    Uiso  ? C
   C54        1.0     0.760303     0.771136     0.060479    Uiso  ? C
   N1         1.0     0.450682     0.613737     0.057467    Uiso  ? N
   N2         1.0     0.545595     0.774010     0.067557    Uiso  ? N
   Fe1        1.0     0.654231     0.663007     0.082511    Uiso  ? Fe
   Ni1        1.0     0.556826     0.488950     0.087136    Uiso  ? Ni
   O1         1.0     0.614988     0.583068     0.148525    Uiso  ? O
