
#======================================================================
# CRYSTAL DATA
#----------------------------------------------------------------------
data_VESTA_phase_1

_chemical_name_common                  'CONTCAR\(5)                           '
_cell_length_a                         12.331300
_cell_length_b                         12.829200
_cell_length_c                         19.994400
_cell_angle_alpha                      89.996696
_cell_angle_beta                       89.998299
_cell_angle_gamma                      89.999496
_cell_volume                           3163.128245
_space_group_name_H-M_alt              'P 1'
_space_group_IT_number                 1

loop_
_space_group_symop_operation_xyz
   'x, y, z'

loop_
   _atom_site_label
   _atom_site_occupancy
   _atom_site_fract_x
   _atom_site_fract_y
   _atom_site_fract_z
   _atom_site_adp_type
   _atom_site_U_iso_or_equiv
   _atom_site_type_symbol
   C1         1.0     0.055484     0.052629     0.052103    Uiso  ? C
   C2         1.0     0.155736     0.108928     0.051885    Uiso  ? C
   C3         1.0     0.156965     0.219959     0.052361    Uiso  ? C
   C4         1.0     0.056806     0.273857     0.052720    Uiso  ? C
   C5         1.0     0.255587     0.054415     0.051716    Uiso  ? C
   C6         1.0     0.356200     0.110021     0.053123    Uiso  ? C
   C7         1.0     0.357570     0.221948     0.053675    Uiso  ? C
   C8         1.0     0.257344     0.276533     0.052809    Uiso  ? C
   C9         1.0     0.455196     0.053442     0.054345    Uiso  ? C
   C10        1.0     0.555752     0.108326     0.056142    Uiso  ? C
   C11        1.0     0.556696     0.219818     0.056345    Uiso  ? C
   C12        1.0     0.457957     0.279028     0.055106    Uiso  ? C
   C13        1.0     0.654563     0.048759     0.057220    Uiso  ? C
   C14        1.0     0.755127     0.105329     0.056626    Uiso  ? C
   C15        1.0     0.756691     0.217227     0.056736    Uiso  ? C
   C16        1.0     0.657740     0.275125     0.057498    Uiso  ? C
   C17        1.0     0.854607     0.049570     0.055076    Uiso  ? C
   C18        1.0     0.955104     0.106401     0.053587    Uiso  ? C
   C19        1.0     0.956444     0.217600     0.053752    Uiso  ? C
   C20        1.0     0.856942     0.272962     0.055278    Uiso  ? C
   C21        1.0     0.057903     0.384974     0.052258    Uiso  ? C
   C22        1.0     0.157201     0.441475     0.051620    Uiso  ? C
   C23        1.0     0.156681     0.552653     0.050599    Uiso  ? C
   C24        1.0     0.057180     0.607414     0.050449    Uiso  ? C
   C25        1.0     0.257564     0.387898     0.052641    Uiso  ? C
   C26        1.0     0.358016     0.444809     0.053585    Uiso  ? C
   C27        1.0     0.357208     0.558244     0.053090    Uiso  ? C
   C28        1.0     0.255888     0.609996     0.050782    Uiso  ? C
   C29        1.0     0.760107     0.441621     0.057961    Uiso  ? C
   C30        1.0     0.859064     0.384300     0.055212    Uiso  ? C
   C31        1.0     0.958366     0.439796     0.052996    Uiso  ? C
   C32        1.0     0.957730     0.550737     0.052145    Uiso  ? C
   C33        1.0     0.858142     0.605367     0.054352    Uiso  ? C
   C34        1.0     0.055963     0.718941     0.049916    Uiso  ? C
   C35        1.0     0.154055     0.775844     0.049303    Uiso  ? C
   C36        1.0     0.154276     0.887105     0.049897    Uiso  ? C
   C37        1.0     0.054573     0.941654     0.051218    Uiso  ? C
   C38        1.0     0.252869     0.720707     0.049835    Uiso  ? C
   C39        1.0     0.350740     0.777012     0.051059    Uiso  ? C
   C40        1.0     0.352928     0.887924     0.051587    Uiso  ? C
   C41        1.0     0.253997     0.943370     0.050669    Uiso  ? C
   C42        1.0     0.448482     0.721504     0.053901    Uiso  ? C
   C43        1.0     0.550557     0.882356     0.056696    Uiso  ? C
   C44        1.0     0.453346     0.941944     0.053908    Uiso  ? C
   C45        1.0     0.753477     0.878405     0.058166    Uiso  ? C
   C46        1.0     0.653294     0.936306     0.058155    Uiso  ? C
   C47        1.0     0.858596     0.717401     0.054843    Uiso  ? C
   C48        1.0     0.956593     0.774041     0.051770    Uiso  ? C
   C49        1.0     0.954880     0.884950     0.052574    Uiso  ? C
   C50        1.0     0.853579     0.937647     0.055151    Uiso  ? C
   C51        1.0     0.457505     0.390956     0.054819    Uiso  ? C
   C52        1.0     0.661804     0.384545     0.058393    Uiso  ? C
   C53        1.0     0.756451     0.554204     0.058837    Uiso  ? C
   C54        1.0     0.757424     0.766438     0.059965    Uiso  ? C
   N1         1.0     0.453453     0.613586     0.055015    Uiso  ? N
   N2         1.0     0.544283     0.775220     0.057795    Uiso  ? N
   Fe1        1.0     0.642255     0.665019     0.068627    Uiso  ? Fe
   Ni1        1.0     0.567208     0.489932     0.056185    Uiso  ? Ni
   H1         1.0     0.661372     0.658590     0.162608    Uiso  ? H
   H2         1.0     0.600553     0.639451     0.160863    Uiso  ? H
