
#======================================================================
# CRYSTAL DATA
#----------------------------------------------------------------------
data_VESTA_phase_1

_chemical_name_common                  'CONTCAR\(5)                           '
_cell_length_a                         12.331300
_cell_length_b                         12.829200
_cell_length_c                         19.994400
_cell_angle_alpha                      89.996696
_cell_angle_beta                       89.998299
_cell_angle_gamma                      89.999496
_cell_volume                           3163.128245
_space_group_name_H-M_alt              'P 1'
_space_group_IT_number                 1

loop_
_space_group_symop_operation_xyz
   'x, y, z'

loop_
   _atom_site_label
   _atom_site_occupancy
   _atom_site_fract_x
   _atom_site_fract_y
   _atom_site_fract_z
   _atom_site_adp_type
   _atom_site_U_iso_or_equiv
   _atom_site_type_symbol
   C1         1.0     0.056943     0.055279     0.044807    Uiso  ? C
   C2         1.0     0.157293     0.111336     0.045040    Uiso  ? C
   C3         1.0     0.158548     0.222460     0.045460    Uiso  ? C
   C4         1.0     0.058118     0.276665     0.045183    Uiso  ? C
   C5         1.0     0.256923     0.056119     0.045806    Uiso  ? C
   C6         1.0     0.357455     0.110999     0.049275    Uiso  ? C
   C7         1.0     0.358450     0.222363     0.050940    Uiso  ? C
   C8         1.0     0.259057     0.278527     0.047418    Uiso  ? C
   C9         1.0     0.456985     0.054759     0.051822    Uiso  ? C
   C10        1.0     0.557321     0.109615     0.055587    Uiso  ? C
   C11        1.0     0.558167     0.220804     0.059543    Uiso  ? C
   C12        1.0     0.458244     0.278098     0.058018    Uiso  ? C
   C13        1.0     0.656311     0.050730     0.055092    Uiso  ? C
   C14        1.0     0.756604     0.107858     0.053084    Uiso  ? C
   C15        1.0     0.757833     0.219719     0.054413    Uiso  ? C
   C16        1.0     0.658938     0.277033     0.061113    Uiso  ? C
   C17        1.0     0.856307     0.052443     0.049372    Uiso  ? C
   C18        1.0     0.956377     0.109466     0.046805    Uiso  ? C
   C19        1.0     0.957320     0.220936     0.047073    Uiso  ? C
   C20        1.0     0.857541     0.276421     0.050638    Uiso  ? C
   C21        1.0     0.059388     0.387505     0.044437    Uiso  ? C
   C22        1.0     0.159536     0.443699     0.043791    Uiso  ? C
   C23        1.0     0.159744     0.554788     0.042965    Uiso  ? C
   C24        1.0     0.059671     0.609656     0.042874    Uiso  ? C
   C25        1.0     0.260524     0.390207     0.046516    Uiso  ? C
   C26        1.0     0.361490     0.446860     0.051527    Uiso  ? C
   C27        1.0     0.361903     0.560717     0.049766    Uiso  ? C
   C28        1.0     0.259096     0.611784     0.044391    Uiso  ? C
   C29        1.0     0.759017     0.446343     0.059399    Uiso  ? C
   C30        1.0     0.858458     0.388203     0.051047    Uiso  ? C
   C31        1.0     0.959127     0.442507     0.046499    Uiso  ? C
   C32        1.0     0.960296     0.553093     0.045969    Uiso  ? C
   C33        1.0     0.860966     0.607925     0.051190    Uiso  ? C
   C34        1.0     0.058214     0.720986     0.042451    Uiso  ? C
   C35        1.0     0.156346     0.777783     0.042024    Uiso  ? C
   C36        1.0     0.156176     0.889063     0.042724    Uiso  ? C
   C37        1.0     0.056325     0.944261     0.043783    Uiso  ? C
   C38        1.0     0.255629     0.722563     0.043413    Uiso  ? C
   C39        1.0     0.353161     0.779444     0.045803    Uiso  ? C
   C40        1.0     0.354874     0.889854     0.046293    Uiso  ? C
   C41        1.0     0.255640     0.945255     0.044363    Uiso  ? C
   C42        1.0     0.451236     0.723585     0.050691    Uiso  ? C
   C43        1.0     0.552869     0.883562     0.053670    Uiso  ? C
   C44        1.0     0.455449     0.943397     0.050314    Uiso  ? C
   C45        1.0     0.755634     0.881665     0.054085    Uiso  ? C
   C46        1.0     0.655046     0.938553     0.055375    Uiso  ? C
   C47        1.0     0.861005     0.719858     0.049734    Uiso  ? C
   C48        1.0     0.958743     0.776606     0.044700    Uiso  ? C
   C49        1.0     0.956732     0.887534     0.045455    Uiso  ? C
   C50        1.0     0.855605     0.940552     0.049237    Uiso  ? C
   C51        1.0     0.457569     0.388895     0.062799    Uiso  ? C
   C52        1.0     0.661848     0.386665     0.068695    Uiso  ? C
   C53        1.0     0.760474     0.557956     0.060731    Uiso  ? C
   C54        1.0     0.761172     0.770897     0.056408    Uiso  ? C
   N1         1.0     0.456273     0.617324     0.053884    Uiso  ? N
   N2         1.0     0.547323     0.776600     0.053985    Uiso  ? N
   Fe1        1.0     0.651542     0.671014     0.084279    Uiso  ? Fe
   Ni1        1.0     0.558306     0.461704     0.109952    Uiso  ? Ni
   O1         1.0     0.560675     0.505794     0.193578    Uiso  ? O
   O2         1.0     0.637855     0.703379     0.174180    Uiso  ? O
   H1         1.0     0.700488     0.685287     0.201637    Uiso  ? H
   H2         1.0     0.568265     0.582325     0.197017    Uiso  ? H
