
#======================================================================
# CRYSTAL DATA
#----------------------------------------------------------------------
data_VESTA_phase_1

_chemical_name_common                  'CONTCAR\(5)                           '
_cell_length_a                         12.331300
_cell_length_b                         12.829200
_cell_length_c                         19.994400
_cell_angle_alpha                      89.996696
_cell_angle_beta                       89.998299
_cell_angle_gamma                      89.999496
_cell_volume                           3163.128245
_space_group_name_H-M_alt              'P 1'
_space_group_IT_number                 1

loop_
_space_group_symop_operation_xyz
   'x, y, z'

loop_
   _atom_site_label
   _atom_site_occupancy
   _atom_site_fract_x
   _atom_site_fract_y
   _atom_site_fract_z
   _atom_site_adp_type
   _atom_site_U_iso_or_equiv
   _atom_site_type_symbol
   C1         1.0     0.055790     0.055520     0.048689    Uiso  ? C
   C2         1.0     0.156161     0.111252     0.048396    Uiso  ? C
   C3         1.0     0.157025     0.222304     0.048186    Uiso  ? C
   C4         1.0     0.056662     0.276595     0.047900    Uiso  ? C
   C5         1.0     0.256080     0.056189     0.049180    Uiso  ? C
   C6         1.0     0.356619     0.111397     0.051697    Uiso  ? C
   C7         1.0     0.357511     0.223143     0.052340    Uiso  ? C
   C8         1.0     0.257428     0.278351     0.049426    Uiso  ? C
   C9         1.0     0.455971     0.054881     0.054307    Uiso  ? C
   C10        1.0     0.556101     0.110237     0.057512    Uiso  ? C
   C11        1.0     0.556764     0.221887     0.059702    Uiso  ? C
   C12        1.0     0.457463     0.279834     0.057024    Uiso  ? C
   C13        1.0     0.655020     0.051263     0.057898    Uiso  ? C
   C14        1.0     0.755138     0.108526     0.055866    Uiso  ? C
   C15        1.0     0.756160     0.220703     0.056388    Uiso  ? C
   C16        1.0     0.657095     0.278510     0.061588    Uiso  ? C
   C17        1.0     0.854998     0.053001     0.052970    Uiso  ? C
   C18        1.0     0.955175     0.109715     0.050291    Uiso  ? C
   C19        1.0     0.955950     0.221082     0.049887    Uiso  ? C
   C20        1.0     0.856117     0.276753     0.052631    Uiso  ? C
   C21        1.0     0.057565     0.387493     0.047043    Uiso  ? C
   C22        1.0     0.157269     0.443687     0.046931    Uiso  ? C
   C23        1.0     0.157456     0.554790     0.046426    Uiso  ? C
   C24        1.0     0.058291     0.610008     0.046109    Uiso  ? C
   C25        1.0     0.257794     0.389758     0.048917    Uiso  ? C
   C26        1.0     0.358012     0.446518     0.052256    Uiso  ? C
   C27        1.0     0.357288     0.559795     0.052565    Uiso  ? C
   C28        1.0     0.256307     0.611914     0.048289    Uiso  ? C
   C29        1.0     0.758065     0.446753     0.058875    Uiso  ? C
   C30        1.0     0.857186     0.388458     0.052064    Uiso  ? C
   C31        1.0     0.957753     0.442737     0.048223    Uiso  ? C
   C32        1.0     0.959273     0.553380     0.047930    Uiso  ? C
   C33        1.0     0.860631     0.608637     0.052208    Uiso  ? C
   C34        1.0     0.057288     0.721414     0.046347    Uiso  ? C
   C35        1.0     0.155356     0.778106     0.046366    Uiso  ? C
   C36        1.0     0.155238     0.889330     0.047123    Uiso  ? C
   C37        1.0     0.055368     0.944529     0.048137    Uiso  ? C
   C38        1.0     0.254241     0.722571     0.047769    Uiso  ? C
   C39        1.0     0.352521     0.778399     0.050211    Uiso  ? C
   C40        1.0     0.354229     0.889257     0.050376    Uiso  ? C
   C41        1.0     0.255032     0.945092     0.048406    Uiso  ? C
   C42        1.0     0.450136     0.721812     0.056060    Uiso  ? C
   C43        1.0     0.551940     0.883269     0.058148    Uiso  ? C
   C44        1.0     0.454673     0.943104     0.053926    Uiso  ? C
   C45        1.0     0.754763     0.882147     0.058123    Uiso  ? C
   C46        1.0     0.654015     0.938562     0.059076    Uiso  ? C
   C47        1.0     0.860583     0.720576     0.052886    Uiso  ? C
   C48        1.0     0.958023     0.777152     0.048738    Uiso  ? C
   C49        1.0     0.955797     0.888100     0.049874    Uiso  ? C
   C50        1.0     0.854501     0.941133     0.053430    Uiso  ? C
   C51        1.0     0.456836     0.391137     0.058387    Uiso  ? C
   C52        1.0     0.659845     0.388442     0.067290    Uiso  ? C
   C53        1.0     0.760174     0.558662     0.059801    Uiso  ? C
   C54        1.0     0.759843     0.770813     0.060200    Uiso  ? C
   N1         1.0     0.452766     0.614411     0.058420    Uiso  ? N
   N2         1.0     0.546643     0.775380     0.060586    Uiso  ? N
   Fe1        1.0     0.651821     0.670099     0.079342    Uiso  ? Fe
   Ni1        1.0     0.558028     0.484689     0.088203    Uiso  ? Ni
   O1         1.0     0.605847     0.539170     0.171449    Uiso  ? O
   O2         1.0     0.636879     0.642801     0.165564    Uiso  ? O
