
#======================================================================
# CRYSTAL DATA
#----------------------------------------------------------------------
data_VESTA_phase_1

_chemical_name_common                  'CONTCAR                               '
_cell_length_a                         12.331300
_cell_length_b                         12.829200
_cell_length_c                         19.994400
_cell_angle_alpha                      89.996696
_cell_angle_beta                       89.998299
_cell_angle_gamma                      89.999496
_cell_volume                           3163.128245
_space_group_name_H-M_alt              'P 1'
_space_group_IT_number                 1

loop_
_space_group_symop_operation_xyz
   'x, y, z'

loop_
   _atom_site_label
   _atom_site_occupancy
   _atom_site_fract_x
   _atom_site_fract_y
   _atom_site_fract_z
   _atom_site_adp_type
   _atom_site_U_iso_or_equiv
   _atom_site_type_symbol
   C1         1.0     0.055990     0.054883     0.055790    Uiso  ? C
   C2         1.0     0.156209     0.111207     0.055809    Uiso  ? C
   C3         1.0     0.157461     0.222231     0.055788    Uiso  ? C
   C4         1.0     0.057333     0.276122     0.055770    Uiso  ? C
   C5         1.0     0.256015     0.056702     0.055815    Uiso  ? C
   C6         1.0     0.356572     0.112351     0.055783    Uiso  ? C
   C7         1.0     0.357956     0.224239     0.055743    Uiso  ? C
   C8         1.0     0.257798     0.278815     0.055761    Uiso  ? C
   C9         1.0     0.455607     0.055787     0.055754    Uiso  ? C
   C10        1.0     0.556219     0.110586     0.055712    Uiso  ? C
   C11        1.0     0.557162     0.222077     0.055702    Uiso  ? C
   C12        1.0     0.458400     0.281292     0.055694    Uiso  ? C
   C13        1.0     0.655021     0.051084     0.055667    Uiso  ? C
   C14        1.0     0.755601     0.107588     0.055677    Uiso  ? C
   C15        1.0     0.757165     0.219467     0.055684    Uiso  ? C
   C16        1.0     0.658194     0.277325     0.055682    Uiso  ? C
   C17        1.0     0.855090     0.051772     0.055692    Uiso  ? C
   C18        1.0     0.955590     0.108646     0.055737    Uiso  ? C
   C19        1.0     0.956968     0.219862     0.055736    Uiso  ? C
   C20        1.0     0.857464     0.275210     0.055698    Uiso  ? C
   C21        1.0     0.058481     0.387216     0.055753    Uiso  ? C
   C22        1.0     0.157775     0.443724     0.055765    Uiso  ? C
   C23        1.0     0.157252     0.554922     0.055777    Uiso  ? C
   C24        1.0     0.057797     0.609658     0.055763    Uiso  ? C
   C25        1.0     0.258067     0.390183     0.055746    Uiso  ? C
   C26        1.0     0.358587     0.447043     0.055698    Uiso  ? C
   C27        1.0     0.357830     0.560504     0.055703    Uiso  ? C
   C28        1.0     0.256420     0.612245     0.055771    Uiso  ? C
   C29        1.0     0.760542     0.443791     0.055653    Uiso  ? C
   C30        1.0     0.859641     0.386509     0.055685    Uiso  ? C
   C31        1.0     0.958949     0.441998     0.055710    Uiso  ? C
   C32        1.0     0.958332     0.552957     0.055707    Uiso  ? C
   C33        1.0     0.858778     0.607448     0.055667    Uiso  ? C
   C34        1.0     0.056581     0.721125     0.055789    Uiso  ? C
   C35        1.0     0.154565     0.778059     0.055819    Uiso  ? C
   C36        1.0     0.154760     0.889316     0.055827    Uiso  ? C
   C37        1.0     0.055099     0.943907     0.055799    Uiso  ? C
   C38        1.0     0.253336     0.722949     0.055792    Uiso  ? C
   C39        1.0     0.351169     0.779295     0.055755    Uiso  ? C
   C40        1.0     0.353373     0.890201     0.055774    Uiso  ? C
   C41        1.0     0.254446     0.945620     0.055823    Uiso  ? C
   C42        1.0     0.448968     0.723800     0.055676    Uiso  ? C
   C43        1.0     0.551108     0.884845     0.055653    Uiso  ? C
   C44        1.0     0.453824     0.944318     0.055732    Uiso  ? C
   C45        1.0     0.753796     0.880569     0.055632    Uiso  ? C
   C46        1.0     0.653737     0.938652     0.055634    Uiso  ? C
   C47        1.0     0.859228     0.719561     0.055666    Uiso  ? C
   C48        1.0     0.957206     0.776243     0.055742    Uiso  ? C
   C49        1.0     0.955409     0.887164     0.055748    Uiso  ? C
   C50        1.0     0.854059     0.939829     0.055681    Uiso  ? C
   C51        1.0     0.457979     0.393149     0.055665    Uiso  ? C
   C52        1.0     0.662307     0.386718     0.055652    Uiso  ? C
   C53        1.0     0.756752     0.556365     0.055644    Uiso  ? C
   C54        1.0     0.757778     0.768618     0.055622    Uiso  ? C
   N1         1.0     0.454147     0.615864     0.055649    Uiso  ? N
   N2         1.0     0.544937     0.777658     0.055628    Uiso  ? N
   Fe1        1.0     0.642714     0.667015     0.055610    Uiso  ? Fe
   Ni1        1.0     0.567827     0.492315     0.055619    Uiso  ? Ni
