
#======================================================================
# CRYSTAL DATA
#----------------------------------------------------------------------
data_VESTA_phase_1

_chemical_name_common                  'CONTCAR\(4)                           '
_cell_length_a                         12.331300
_cell_length_b                         12.829200
_cell_length_c                         19.994400
_cell_angle_alpha                      89.996696
_cell_angle_beta                       89.998299
_cell_angle_gamma                      89.999496
_cell_volume                           3163.128245
_space_group_name_H-M_alt              'P 1'
_space_group_IT_number                 1

loop_
_space_group_symop_operation_xyz
   'x, y, z'

loop_
   _atom_site_label
   _atom_site_occupancy
   _atom_site_fract_x
   _atom_site_fract_y
   _atom_site_fract_z
   _atom_site_adp_type
   _atom_site_U_iso_or_equiv
   _atom_site_type_symbol
   C1         1.0     0.055880     0.054985     0.050736    Uiso  ? C
   C2         1.0     0.156313     0.110159     0.050783    Uiso  ? C
   C3         1.0     0.156792     0.221112     0.049540    Uiso  ? C
   C4         1.0     0.056787     0.275798     0.048463    Uiso  ? C
   C5         1.0     0.256663     0.055356     0.052786    Uiso  ? C
   C6         1.0     0.357025     0.111198     0.055697    Uiso  ? C
   C7         1.0     0.357503     0.223207     0.054966    Uiso  ? C
   C8         1.0     0.256793     0.277292     0.050659    Uiso  ? C
   C9         1.0     0.456522     0.055210     0.059539    Uiso  ? C
   C10        1.0     0.556478     0.112370     0.062476    Uiso  ? C
   C11        1.0     0.557074     0.224403     0.063483    Uiso  ? C
   C12        1.0     0.457026     0.281223     0.059074    Uiso  ? C
   C13        1.0     0.655743     0.053193     0.062293    Uiso  ? C
   C14        1.0     0.755566     0.110433     0.058899    Uiso  ? C
   C15        1.0     0.756210     0.222937     0.059220    Uiso  ? C
   C16        1.0     0.657939     0.282824     0.065123    Uiso  ? C
   C17        1.0     0.855029     0.054176     0.055100    Uiso  ? C
   C18        1.0     0.955534     0.109815     0.052066    Uiso  ? C
   C19        1.0     0.956277     0.220847     0.050985    Uiso  ? C
   C20        1.0     0.856655     0.276955     0.053853    Uiso  ? C
   C21        1.0     0.057655     0.386834     0.046672    Uiso  ? C
   C22        1.0     0.156188     0.443185     0.046360    Uiso  ? C
   C23        1.0     0.155641     0.554756     0.045710    Uiso  ? C
   C24        1.0     0.057166     0.610377     0.045372    Uiso  ? C
   C25        1.0     0.255971     0.388367     0.049027    Uiso  ? C
   C26        1.0     0.354929     0.444760     0.052454    Uiso  ? C
   C27        1.0     0.352985     0.557942     0.053622    Uiso  ? C
   C28        1.0     0.253701     0.611930     0.048670    Uiso  ? C
   C29        1.0     0.761624     0.447045     0.059410    Uiso  ? C
   C30        1.0     0.858742     0.388304     0.052182    Uiso  ? C
   C31        1.0     0.958518     0.442498     0.047655    Uiso  ? C
   C32        1.0     0.959145     0.553140     0.046970    Uiso  ? C
   C33        1.0     0.860011     0.607091     0.051276    Uiso  ? C
   C34        1.0     0.056212     0.721931     0.046630    Uiso  ? C
   C35        1.0     0.154572     0.778264     0.047905    Uiso  ? C
   C36        1.0     0.155394     0.889266     0.049639    Uiso  ? C
   C37        1.0     0.055416     0.944021     0.050020    Uiso  ? C
   C38        1.0     0.253633     0.722496     0.049728    Uiso  ? C
   C39        1.0     0.353071     0.776668     0.054794    Uiso  ? C
   C40        1.0     0.355456     0.888187     0.055742    Uiso  ? C
   C41        1.0     0.255913     0.944290     0.052347    Uiso  ? C
   C42        1.0     0.449930     0.717698     0.062425    Uiso  ? C
   C43        1.0     0.554086     0.883285     0.065658    Uiso  ? C
   C44        1.0     0.455786     0.942813     0.060388    Uiso  ? C
   C45        1.0     0.755085     0.884113     0.058846    Uiso  ? C
   C46        1.0     0.655117     0.941156     0.063341    Uiso  ? C
   C47        1.0     0.857544     0.720342     0.051850    Uiso  ? C
   C48        1.0     0.956478     0.776841     0.049051    Uiso  ? C
   C49        1.0     0.955420     0.887879     0.050818    Uiso  ? C
   C50        1.0     0.854565     0.942087     0.054680    Uiso  ? C
   C51        1.0     0.455028     0.393025     0.058038    Uiso  ? C
   C52        1.0     0.661160     0.394050     0.069859    Uiso  ? C
   C53        1.0     0.549965     0.772328     0.071078    Uiso  ? C
   C54        1.0     0.757405     0.772172     0.057951    Uiso  ? C
   N1         1.0     0.765412     0.555401     0.058513    Uiso  ? N
   N2         1.0     0.447486     0.609158     0.062172    Uiso  ? N
   Fe1        1.0     0.654386     0.665539     0.080903    Uiso  ? Fe
   Ni1        1.0     0.556404     0.495005     0.079755    Uiso  ? Ni
   H1         1.0     0.612697     0.570271     0.135470    Uiso  ? H
