
#======================================================================
# CRYSTAL DATA
#----------------------------------------------------------------------
data_VESTA_phase_1

_chemical_name_common                  'CONTCAR\(4)                           '
_cell_length_a                         12.331300
_cell_length_b                         12.829200
_cell_length_c                         19.994400
_cell_angle_alpha                      89.996696
_cell_angle_beta                       89.998299
_cell_angle_gamma                      89.999496
_cell_volume                           3163.128245
_space_group_name_H-M_alt              'P 1'
_space_group_IT_number                 1

loop_
_space_group_symop_operation_xyz
   'x, y, z'

loop_
   _atom_site_label
   _atom_site_occupancy
   _atom_site_fract_x
   _atom_site_fract_y
   _atom_site_fract_z
   _atom_site_adp_type
   _atom_site_U_iso_or_equiv
   _atom_site_type_symbol
   C1         1.0     0.055715     0.055656     0.049312    Uiso  ? C
   C2         1.0     0.156141     0.110944     0.049511    Uiso  ? C
   C3         1.0     0.156666     0.221943     0.048645    Uiso  ? C
   C4         1.0     0.056572     0.276659     0.047704    Uiso  ? C
   C5         1.0     0.256425     0.056047     0.051441    Uiso  ? C
   C6         1.0     0.356777     0.111935     0.054136    Uiso  ? C
   C7         1.0     0.357333     0.223879     0.053741    Uiso  ? C
   C8         1.0     0.256687     0.278132     0.049989    Uiso  ? C
   C9         1.0     0.456299     0.055866     0.057612    Uiso  ? C
   C10        1.0     0.556263     0.112716     0.060098    Uiso  ? C
   C11        1.0     0.556937     0.224518     0.061292    Uiso  ? C
   C12        1.0     0.457068     0.281564     0.058006    Uiso  ? C
   C13        1.0     0.655559     0.054034     0.059593    Uiso  ? C
   C14        1.0     0.755394     0.110909     0.056316    Uiso  ? C
   C15        1.0     0.756104     0.223128     0.056535    Uiso  ? C
   C16        1.0     0.657664     0.282332     0.062085    Uiso  ? C
   C17        1.0     0.855014     0.054867     0.052901    Uiso  ? C
   C18        1.0     0.955442     0.110588     0.050388    Uiso  ? C
   C19        1.0     0.956119     0.221681     0.049662    Uiso  ? C
   C20        1.0     0.856345     0.277625     0.052035    Uiso  ? C
   C21        1.0     0.057294     0.387681     0.046383    Uiso  ? C
   C22        1.0     0.155977     0.444034     0.046615    Uiso  ? C
   C23        1.0     0.155348     0.555403     0.046282    Uiso  ? C
   C24        1.0     0.056540     0.610946     0.045601    Uiso  ? C
   C25        1.0     0.256062     0.389291     0.049096    Uiso  ? C
   C26        1.0     0.355075     0.445790     0.052850    Uiso  ? C
   C27        1.0     0.353157     0.558675     0.054080    Uiso  ? C
   C28        1.0     0.253664     0.612445     0.049057    Uiso  ? C
   C29        1.0     0.760034     0.447765     0.055541    Uiso  ? C
   C30        1.0     0.857930     0.388943     0.050341    Uiso  ? C
   C31        1.0     0.957874     0.443241     0.046731    Uiso  ? C
   C32        1.0     0.958249     0.553866     0.046096    Uiso  ? C
   C33        1.0     0.858308     0.607518     0.048236    Uiso  ? C
   C34        1.0     0.055853     0.722395     0.046470    Uiso  ? C
   C35        1.0     0.154410     0.778740     0.047885    Uiso  ? C
   C36        1.0     0.155264     0.889797     0.048953    Uiso  ? C
   C37        1.0     0.055204     0.944607     0.048882    Uiso  ? C
   C38        1.0     0.253608     0.723079     0.049841    Uiso  ? C
   C39        1.0     0.353213     0.777297     0.054098    Uiso  ? C
   C40        1.0     0.355334     0.888806     0.054504    Uiso  ? C
   C41        1.0     0.255732     0.944875     0.051291    Uiso  ? C
   C42        1.0     0.450577     0.718319     0.061120    Uiso  ? C
   C43        1.0     0.554161     0.884565     0.063026    Uiso  ? C
   C44        1.0     0.455568     0.943650     0.058428    Uiso  ? C
   C45        1.0     0.754910     0.885427     0.056518    Uiso  ? C
   C46        1.0     0.654924     0.942144     0.060702    Uiso  ? C
   C47        1.0     0.856701     0.720836     0.049279    Uiso  ? C
   C48        1.0     0.955957     0.777220     0.047830    Uiso  ? C
   C49        1.0     0.955173     0.888420     0.049393    Uiso  ? C
   C50        1.0     0.854522     0.943004     0.052482    Uiso  ? C
   C51        1.0     0.455249     0.393150     0.058343    Uiso  ? C
   C52        1.0     0.660247     0.393249     0.066030    Uiso  ? C
   C53        1.0     0.550733     0.773493     0.068013    Uiso  ? C
   C54        1.0     0.757019     0.773938     0.055898    Uiso  ? C
   N1         1.0     0.763088     0.555888     0.052693    Uiso  ? N
   N2         1.0     0.447994     0.609945     0.062398    Uiso  ? N
   Fe1        1.0     0.657162     0.671091     0.083637    Uiso  ? Fe
   Ni1        1.0     0.555811     0.491273     0.082279    Uiso  ? Ni
   O1         1.0     0.621081     0.578296     0.154910    Uiso  ? O
   H1         1.0     0.562810     0.605407     0.182885    Uiso  ? H
