
#======================================================================
# CRYSTAL DATA
#----------------------------------------------------------------------
data_VESTA_phase_1

_chemical_name_common                  'CONTCAR\(4)                           '
_cell_length_a                         12.331300
_cell_length_b                         12.829200
_cell_length_c                         19.994400
_cell_angle_alpha                      89.996696
_cell_angle_beta                       89.998299
_cell_angle_gamma                      89.999496
_cell_volume                           3163.128245
_space_group_name_H-M_alt              'P 1'
_space_group_IT_number                 1

loop_
_space_group_symop_operation_xyz
   'x, y, z'

loop_
   _atom_site_label
   _atom_site_occupancy
   _atom_site_fract_x
   _atom_site_fract_y
   _atom_site_fract_z
   _atom_site_adp_type
   _atom_site_U_iso_or_equiv
   _atom_site_type_symbol
   C1         1.0     0.055757     0.054853     0.050784    Uiso  ? C
   C2         1.0     0.156209     0.110075     0.050989    Uiso  ? C
   C3         1.0     0.156674     0.221033     0.049909    Uiso  ? C
   C4         1.0     0.056614     0.275764     0.048342    Uiso  ? C
   C5         1.0     0.256484     0.055180     0.052918    Uiso  ? C
   C6         1.0     0.356816     0.110997     0.056339    Uiso  ? C
   C7         1.0     0.357250     0.222840     0.056260    Uiso  ? C
   C8         1.0     0.256717     0.277175     0.051536    Uiso  ? C
   C9         1.0     0.456384     0.055019     0.060016    Uiso  ? C
   C10        1.0     0.556363     0.111935     0.063037    Uiso  ? C
   C11        1.0     0.556995     0.223870     0.064519    Uiso  ? C
   C12        1.0     0.456761     0.280612     0.061305    Uiso  ? C
   C13        1.0     0.655733     0.053113     0.062667    Uiso  ? C
   C14        1.0     0.755475     0.110241     0.059139    Uiso  ? C
   C15        1.0     0.756064     0.222654     0.058821    Uiso  ? C
   C16        1.0     0.657638     0.282088     0.064701    Uiso  ? C
   C17        1.0     0.855041     0.054020     0.055448    Uiso  ? C
   C18        1.0     0.955434     0.109752     0.052200    Uiso  ? C
   C19        1.0     0.956075     0.220827     0.050914    Uiso  ? C
   C20        1.0     0.856393     0.276920     0.053418    Uiso  ? C
   C21        1.0     0.057509     0.386712     0.045998    Uiso  ? C
   C22        1.0     0.156246     0.443013     0.045954    Uiso  ? C
   C23        1.0     0.155760     0.554497     0.045045    Uiso  ? C
   C24        1.0     0.057155     0.610105     0.044152    Uiso  ? C
   C25        1.0     0.256190     0.388253     0.049522    Uiso  ? C
   C26        1.0     0.355320     0.444612     0.053676    Uiso  ? C
   C27        1.0     0.353571     0.557746     0.053303    Uiso  ? C
   C28        1.0     0.254051     0.611562     0.047987    Uiso  ? C
   C29        1.0     0.760479     0.447379     0.056150    Uiso  ? C
   C30        1.0     0.858162     0.388216     0.050832    Uiso  ? C
   C31        1.0     0.958122     0.442352     0.046151    Uiso  ? C
   C32        1.0     0.958922     0.552969     0.045029    Uiso  ? C
   C33        1.0     0.859476     0.606833     0.047909    Uiso  ? C
   C34        1.0     0.056145     0.721629     0.045287    Uiso  ? C
   C35        1.0     0.154619     0.777955     0.046952    Uiso  ? C
   C36        1.0     0.155385     0.889018     0.049034    Uiso  ? C
   C37        1.0     0.055331     0.943849     0.049792    Uiso  ? C
   C38        1.0     0.253811     0.722228     0.048942    Uiso  ? C
   C39        1.0     0.353099     0.776604     0.054284    Uiso  ? C
   C40        1.0     0.355427     0.888059     0.055352    Uiso  ? C
   C41        1.0     0.255808     0.944089     0.052007    Uiso  ? C
   C42        1.0     0.450304     0.717679     0.061270    Uiso  ? C
   C43        1.0     0.554205     0.883577     0.065103    Uiso  ? C
   C44        1.0     0.455662     0.942779     0.060216    Uiso  ? C
   C45        1.0     0.755213     0.884099     0.060116    Uiso  ? C
   C46        1.0     0.655173     0.941087     0.063841    Uiso  ? C
   C47        1.0     0.857284     0.720151     0.050809    Uiso  ? C
   C48        1.0     0.956301     0.776558     0.048003    Uiso  ? C
   C49        1.0     0.955338     0.887690     0.050727    Uiso  ? C
   C50        1.0     0.854672     0.942021     0.055240    Uiso  ? C
   C51        1.0     0.454743     0.391981     0.061734    Uiso  ? C
   C52        1.0     0.660510     0.393426     0.068354    Uiso  ? C
   C53        1.0     0.550048     0.772732     0.068990    Uiso  ? C
   C54        1.0     0.757782     0.772474     0.059374    Uiso  ? C
   N1         1.0     0.764628     0.555082     0.052428    Uiso  ? N
   N2         1.0     0.448060     0.609339     0.060929    Uiso  ? N
   Fe1        1.0     0.653401     0.665545     0.080459    Uiso  ? Fe
   Ni1        1.0     0.555655     0.490983     0.087616    Uiso  ? Ni
   O1         1.0     0.619272     0.584159     0.146891    Uiso  ? O
