
#======================================================================
# CRYSTAL DATA
#----------------------------------------------------------------------
data_VESTA_phase_1

_chemical_name_common                  'CONTCAR\(4)                           '
_cell_length_a                         12.331300
_cell_length_b                         12.829200
_cell_length_c                         19.994400
_cell_angle_alpha                      89.996696
_cell_angle_beta                       89.998299
_cell_angle_gamma                      89.999496
_cell_volume                           3163.128245
_space_group_name_H-M_alt              'P 1'
_space_group_IT_number                 1

loop_
_space_group_symop_operation_xyz
   'x, y, z'

loop_
   _atom_site_label
   _atom_site_occupancy
   _atom_site_fract_x
   _atom_site_fract_y
   _atom_site_fract_z
   _atom_site_adp_type
   _atom_site_U_iso_or_equiv
   _atom_site_type_symbol
   C1         1.0     0.055391     0.053844     0.052596    Uiso  ? C
   C2         1.0     0.155809     0.109411     0.052099    Uiso  ? C
   C3         1.0     0.156766     0.220394     0.051182    Uiso  ? C
   C4         1.0     0.056584     0.274974     0.050417    Uiso  ? C
   C5         1.0     0.256183     0.054824     0.052787    Uiso  ? C
   C6         1.0     0.356487     0.110803     0.055211    Uiso  ? C
   C7         1.0     0.357457     0.222699     0.055239    Uiso  ? C
   C8         1.0     0.256806     0.276770     0.051770    Uiso  ? C
   C9         1.0     0.456082     0.054742     0.057849    Uiso  ? C
   C10        1.0     0.556350     0.111285     0.060856    Uiso  ? C
   C11        1.0     0.557170     0.223401     0.062043    Uiso  ? C
   C12        1.0     0.457317     0.280580     0.058855    Uiso  ? C
   C13        1.0     0.655554     0.052353     0.061413    Uiso  ? C
   C14        1.0     0.755360     0.109218     0.059529    Uiso  ? C
   C15        1.0     0.756332     0.221570     0.059281    Uiso  ? C
   C16        1.0     0.657874     0.281231     0.063375    Uiso  ? C
   C17        1.0     0.854582     0.052282     0.056931    Uiso  ? C
   C18        1.0     0.954992     0.108395     0.054035    Uiso  ? C
   C19        1.0     0.956144     0.219750     0.052743    Uiso  ? C
   C20        1.0     0.856611     0.276101     0.054720    Uiso  ? C
   C21        1.0     0.057802     0.385975     0.048644    Uiso  ? C
   C22        1.0     0.156419     0.442549     0.047783    Uiso  ? C
   C23        1.0     0.155849     0.553800     0.046871    Uiso  ? C
   C24        1.0     0.056590     0.609315     0.047079    Uiso  ? C
   C25        1.0     0.256484     0.387958     0.049830    Uiso  ? C
   C26        1.0     0.355545     0.444546     0.052082    Uiso  ? C
   C27        1.0     0.354151     0.557402     0.051094    Uiso  ? C
   C28        1.0     0.253898     0.611078     0.047994    Uiso  ? C
   C29        1.0     0.761535     0.446757     0.057877    Uiso  ? C
   C30        1.0     0.858899     0.387512     0.052699    Uiso  ? C
   C31        1.0     0.958694     0.441597     0.049253    Uiso  ? C
   C32        1.0     0.958735     0.552087     0.048705    Uiso  ? C
   C33        1.0     0.858985     0.606151     0.052337    Uiso  ? C
   C34        1.0     0.055362     0.720566     0.047978    Uiso  ? C
   C35        1.0     0.153767     0.777172     0.048367    Uiso  ? C
   C36        1.0     0.154748     0.888173     0.050092    Uiso  ? C
   C37        1.0     0.054484     0.942763     0.051752    Uiso  ? C
   C38        1.0     0.253009     0.721647     0.048562    Uiso  ? C
   C39        1.0     0.352290     0.776399     0.051256    Uiso  ? C
   C40        1.0     0.354712     0.887829     0.053006    Uiso  ? C
   C41        1.0     0.255178     0.943616     0.051581    Uiso  ? C
   C42        1.0     0.449766     0.718041     0.055397    Uiso  ? C
   C43        1.0     0.553503     0.884058     0.061511    Uiso  ? C
   C44        1.0     0.455102     0.942777     0.057237    Uiso  ? C
   C45        1.0     0.753847     0.881244     0.061037    Uiso  ? C
   C46        1.0     0.654722     0.939955     0.062357    Uiso  ? C
   C47        1.0     0.856775     0.718343     0.053623    Uiso  ? C
   C48        1.0     0.955200     0.775162     0.050761    Uiso  ? C
   C49        1.0     0.954643     0.886355     0.053096    Uiso  ? C
   C50        1.0     0.853413     0.939803     0.057184    Uiso  ? C
   C51        1.0     0.455726     0.392262     0.057940    Uiso  ? C
   C52        1.0     0.661442     0.392406     0.066186    Uiso  ? C
   C53        1.0     0.550470     0.772937     0.062705    Uiso  ? C
   C54        1.0     0.754627     0.767559     0.060492    Uiso  ? C
   N1         1.0     0.763531     0.555340     0.057415    Uiso  ? N
   N2         1.0     0.449270     0.609747     0.055884    Uiso  ? N
   Fe1        1.0     0.644026     0.665576     0.073150    Uiso  ? Fe
   Ni1        1.0     0.559724     0.494574     0.072492    Uiso  ? Ni
   H1         1.0     0.653149     0.698784     0.143108    Uiso  ? H
   H2         1.0     0.618108     0.575604     0.128231    Uiso  ? H
