
#======================================================================
# CRYSTAL DATA
#----------------------------------------------------------------------
data_VESTA_phase_1

_chemical_name_common                  'CONTCAR\(4)                           '
_cell_length_a                         12.331300
_cell_length_b                         12.829200
_cell_length_c                         19.994400
_cell_angle_alpha                      89.996696
_cell_angle_beta                       89.998299
_cell_angle_gamma                      89.999496
_cell_volume                           3163.128245
_space_group_name_H-M_alt              'P 1'
_space_group_IT_number                 1

loop_
_space_group_symop_operation_xyz
   'x, y, z'

loop_
   _atom_site_label
   _atom_site_occupancy
   _atom_site_fract_x
   _atom_site_fract_y
   _atom_site_fract_z
   _atom_site_adp_type
   _atom_site_U_iso_or_equiv
   _atom_site_type_symbol
   C1         1.0     0.055982     0.051892     0.044927    Uiso  ? C
   C2         1.0     0.156432     0.107003     0.043989    Uiso  ? C
   C3         1.0     0.156718     0.218139     0.043100    Uiso  ? C
   C4         1.0     0.056516     0.273189     0.044104    Uiso  ? C
   C5         1.0     0.256808     0.051914     0.045117    Uiso  ? C
   C6         1.0     0.357103     0.107863     0.048112    Uiso  ? C
   C7         1.0     0.357536     0.219807     0.046956    Uiso  ? C
   C8         1.0     0.256734     0.274163     0.042848    Uiso  ? C
   C9         1.0     0.456640     0.051790     0.052997    Uiso  ? C
   C10        1.0     0.556226     0.108870     0.057658    Uiso  ? C
   C11        1.0     0.556793     0.220747     0.058248    Uiso  ? C
   C12        1.0     0.457168     0.277568     0.051590    Uiso  ? C
   C13        1.0     0.655733     0.050440     0.060009    Uiso  ? C
   C14        1.0     0.755788     0.107376     0.057257    Uiso  ? C
   C15        1.0     0.756412     0.219417     0.058199    Uiso  ? C
   C16        1.0     0.657488     0.278406     0.062687    Uiso  ? C
   C17        1.0     0.855659     0.051787     0.052513    Uiso  ? C
   C18        1.0     0.955808     0.107212     0.048225    Uiso  ? C
   C19        1.0     0.956232     0.218253     0.048292    Uiso  ? C
   C20        1.0     0.856546     0.274074     0.053490    Uiso  ? C
   C21        1.0     0.056990     0.384194     0.042390    Uiso  ? C
   C22        1.0     0.155673     0.440286     0.039530    Uiso  ? C
   C23        1.0     0.154761     0.551695     0.038357    Uiso  ? C
   C24        1.0     0.055445     0.607201     0.039349    Uiso  ? C
   C25        1.0     0.255988     0.385353     0.040786    Uiso  ? C
   C26        1.0     0.355152     0.441682     0.043092    Uiso  ? C
   C27        1.0     0.353433     0.554621     0.044055    Uiso  ? C
   C28        1.0     0.253483     0.608507     0.039869    Uiso  ? C
   C29        1.0     0.760708     0.444338     0.062778    Uiso  ? C
   C30        1.0     0.858113     0.385493     0.053636    Uiso  ? C
   C31        1.0     0.957404     0.439885     0.046226    Uiso  ? C
   C32        1.0     0.956859     0.550452     0.044423    Uiso  ? C
   C33        1.0     0.856593     0.603815     0.052900    Uiso  ? C
   C34        1.0     0.055452     0.718644     0.039539    Uiso  ? C
   C35        1.0     0.154651     0.774720     0.039540    Uiso  ? C
   C36        1.0     0.155635     0.885815     0.041689    Uiso  ? C
   C37        1.0     0.055488     0.940829     0.043582    Uiso  ? C
   C38        1.0     0.254355     0.719064     0.040819    Uiso  ? C
   C39        1.0     0.354745     0.772725     0.046313    Uiso  ? C
   C40        1.0     0.356190     0.884343     0.047791    Uiso  ? C
   C41        1.0     0.256273     0.940615     0.044288    Uiso  ? C
   C42        1.0     0.452507     0.713013     0.054570    Uiso  ? C
   C43        1.0     0.554279     0.880467     0.062296    Uiso  ? C
   C44        1.0     0.456077     0.939427     0.053818    Uiso  ? C
   C45        1.0     0.756467     0.883379     0.060230    Uiso  ? C
   C46        1.0     0.655210     0.938768     0.062890    Uiso  ? C
   C47        1.0     0.856319     0.717446     0.051779    Uiso  ? C
   C48        1.0     0.955347     0.773565     0.043957    Uiso  ? C
   C49        1.0     0.955358     0.884897     0.046094    Uiso  ? C
   C50        1.0     0.855512     0.940207     0.052298    Uiso  ? C
   C51        1.0     0.455598     0.389139     0.049461    Uiso  ? C
   C52        1.0     0.659813     0.388961     0.068341    Uiso  ? C
   C53        1.0     0.550586     0.769165     0.067968    Uiso  ? C
   C54        1.0     0.760503     0.773094     0.064087    Uiso  ? C
   N1         1.0     0.763071     0.552501     0.064430    Uiso  ? N
   N2         1.0     0.448818     0.604918     0.052538    Uiso  ? N
   Fe1        1.0     0.660808     0.692144     0.114946    Uiso  ? Fe
   Ni1        1.0     0.553890     0.487458     0.075404    Uiso  ? Ni
   O1         1.0     0.598340     0.567256     0.154155    Uiso  ? O
   O2         1.0     0.704746     0.747792     0.195494    Uiso  ? O
   H1         1.0     0.708594     0.695647     0.230945    Uiso  ? H
   H2         1.0     0.534877     0.583847     0.181180    Uiso  ? H
