
#======================================================================
# CRYSTAL DATA
#----------------------------------------------------------------------
data_VESTA_phase_1

_chemical_name_common                  'CONTCAR\(4)                           '
_cell_length_a                         12.331300
_cell_length_b                         12.829200
_cell_length_c                         19.994400
_cell_angle_alpha                      89.996696
_cell_angle_beta                       89.998299
_cell_angle_gamma                      89.999496
_cell_volume                           3163.128245
_space_group_name_H-M_alt              'P 1'
_space_group_IT_number                 1

loop_
_space_group_symop_operation_xyz
   'x, y, z'

loop_
   _atom_site_label
   _atom_site_occupancy
   _atom_site_fract_x
   _atom_site_fract_y
   _atom_site_fract_z
   _atom_site_adp_type
   _atom_site_U_iso_or_equiv
   _atom_site_type_symbol
   C1         1.0     0.056128     0.054101     0.049135    Uiso  ? C
   C2         1.0     0.156615     0.109210     0.049213    Uiso  ? C
   C3         1.0     0.156898     0.220266     0.048586    Uiso  ? C
   C4         1.0     0.056688     0.275232     0.047505    Uiso  ? C
   C5         1.0     0.257042     0.054131     0.050566    Uiso  ? C
   C6         1.0     0.357404     0.109849     0.053535    Uiso  ? C
   C7         1.0     0.357667     0.221857     0.053796    Uiso  ? C
   C8         1.0     0.256983     0.276344     0.050154    Uiso  ? C
   C9         1.0     0.457087     0.053615     0.056605    Uiso  ? C
   C10        1.0     0.556817     0.110834     0.059739    Uiso  ? C
   C11        1.0     0.557366     0.222727     0.061276    Uiso  ? C
   C12        1.0     0.457318     0.279625     0.058179    Uiso  ? C
   C13        1.0     0.656266     0.052335     0.059890    Uiso  ? C
   C14        1.0     0.755842     0.109426     0.056827    Uiso  ? C
   C15        1.0     0.756308     0.221856     0.056522    Uiso  ? C
   C16        1.0     0.657810     0.280969     0.062022    Uiso  ? C
   C17        1.0     0.855463     0.053230     0.053524    Uiso  ? C
   C18        1.0     0.955744     0.109170     0.050439    Uiso  ? C
   C19        1.0     0.956129     0.220441     0.049476    Uiso  ? C
   C20        1.0     0.856226     0.276720     0.051715    Uiso  ? C
   C21        1.0     0.057257     0.386329     0.045826    Uiso  ? C
   C22        1.0     0.156149     0.442470     0.046225    Uiso  ? C
   C23        1.0     0.155751     0.553827     0.045287    Uiso  ? C
   C24        1.0     0.056799     0.609472     0.044067    Uiso  ? C
   C25        1.0     0.256248     0.387526     0.049254    Uiso  ? C
   C26        1.0     0.355354     0.443901     0.053038    Uiso  ? C
   C27        1.0     0.353984     0.556905     0.053399    Uiso  ? C
   C28        1.0     0.254343     0.610710     0.047808    Uiso  ? C
   C29        1.0     0.759036     0.447482     0.054370    Uiso  ? C
   C30        1.0     0.857341     0.388291     0.049482    Uiso  ? C
   C31        1.0     0.957654     0.442090     0.045615    Uiso  ? C
   C32        1.0     0.958135     0.552684     0.044616    Uiso  ? C
   C33        1.0     0.858216     0.606860     0.047071    Uiso  ? C
   C34        1.0     0.056406     0.720874     0.044721    Uiso  ? C
   C35        1.0     0.155248     0.777041     0.046022    Uiso  ? C
   C36        1.0     0.156004     0.888072     0.047468    Uiso  ? C
   C37        1.0     0.055795     0.943015     0.048376    Uiso  ? C
   C38        1.0     0.254765     0.721301     0.047823    Uiso  ? C
   C39        1.0     0.354922     0.775169     0.051350    Uiso  ? C
   C40        1.0     0.356480     0.886697     0.051933    Uiso  ? C
   C41        1.0     0.256578     0.942934     0.049568    Uiso  ? C
   C42        1.0     0.452783     0.715909     0.057967    Uiso  ? C
   C43        1.0     0.555580     0.881906     0.060862    Uiso  ? C
   C44        1.0     0.456673     0.941208     0.056203    Uiso  ? C
   C45        1.0     0.755645     0.883474     0.059436    Uiso  ? C
   C46        1.0     0.655821     0.940278     0.061384    Uiso  ? C
   C47        1.0     0.857123     0.719495     0.050037    Uiso  ? C
   C48        1.0     0.956317     0.775815     0.046989    Uiso  ? C
   C49        1.0     0.955816     0.886949     0.049582    Uiso  ? C
   C50        1.0     0.855151     0.941282     0.053895    Uiso  ? C
   C51        1.0     0.455211     0.391007     0.058600    Uiso  ? C
   C52        1.0     0.659953     0.392199     0.065787    Uiso  ? C
   C53        1.0     0.553537     0.770672     0.063816    Uiso  ? C
   C54        1.0     0.757525     0.771710     0.061045    Uiso  ? C
   N1         1.0     0.762040     0.556493     0.050513    Uiso  ? N
   N2         1.0     0.449238     0.607745     0.060927    Uiso  ? N
   Fe1        1.0     0.658109     0.669451     0.090844    Uiso  ? Fe
   Ni1        1.0     0.555013     0.489785     0.084343    Uiso  ? Ni
   O1         1.0     0.633199     0.564797     0.156874    Uiso  ? O
   O2         1.0     0.599499     0.669465     0.172852    Uiso  ? O
