
#======================================================================
# CRYSTAL DATA
#----------------------------------------------------------------------
data_VESTA_phase_1

_chemical_name_common                  'POSCAR\(2)                            '
_cell_length_a                         12.331300
_cell_length_b                         12.829200
_cell_length_c                         19.994400
_cell_angle_alpha                      89.996696
_cell_angle_beta                       89.998299
_cell_angle_gamma                      89.999496
_cell_volume                           3163.128245
_space_group_name_H-M_alt              'P 1'
_space_group_IT_number                 1

loop_
_space_group_symop_operation_xyz
   'x, y, z'

loop_
   _atom_site_label
   _atom_site_occupancy
   _atom_site_fract_x
   _atom_site_fract_y
   _atom_site_fract_z
   _atom_site_adp_type
   _atom_site_U_iso_or_equiv
   _atom_site_type_symbol
   C1         1.0     0.055944     0.054518     0.055784    Uiso  ? C
   C2         1.0     0.156218     0.110331     0.055802    Uiso  ? C
   C3         1.0     0.157213     0.221351     0.055784    Uiso  ? C
   C4         1.0     0.057356     0.275728     0.055758    Uiso  ? C
   C5         1.0     0.256336     0.055801     0.055811    Uiso  ? C
   C6         1.0     0.356812     0.111915     0.055781    Uiso  ? C
   C7         1.0     0.357840     0.223782     0.055750    Uiso  ? C
   C8         1.0     0.257272     0.277941     0.055772    Uiso  ? C
   C9         1.0     0.456097     0.055938     0.055751    Uiso  ? C
   C10        1.0     0.556632     0.111992     0.055715    Uiso  ? C
   C11        1.0     0.557509     0.223487     0.055691    Uiso  ? C
   C12        1.0     0.458093     0.281215     0.055694    Uiso  ? C
   C13        1.0     0.655916     0.052995     0.055683    Uiso  ? C
   C14        1.0     0.756088     0.109465     0.055698    Uiso  ? C
   C15        1.0     0.757149     0.221478     0.055704    Uiso  ? C
   C16        1.0     0.658625     0.280546     0.055663    Uiso  ? C
   C17        1.0     0.855179     0.052873     0.055705    Uiso  ? C
   C18        1.0     0.955763     0.109021     0.055748    Uiso  ? C
   C19        1.0     0.957024     0.220119     0.055744    Uiso  ? C
   C20        1.0     0.857568     0.276059     0.055716    Uiso  ? C
   C21        1.0     0.058518     0.386826     0.055748    Uiso  ? C
   C22        1.0     0.157078     0.443422     0.055777    Uiso  ? C
   C23        1.0     0.156292     0.554823     0.055786    Uiso  ? C
   C24        1.0     0.057264     0.609976     0.055764    Uiso  ? C
   C25        1.0     0.256938     0.389076     0.055769    Uiso  ? C
   C26        1.0     0.356599     0.445617     0.055727    Uiso  ? C
   C27        1.0     0.355540     0.558849     0.055717    Uiso  ? C
   C28        1.0     0.254937     0.612010     0.055774    Uiso  ? C
   C29        1.0     0.762233     0.445435     0.055645    Uiso  ? C
   C30        1.0     0.860118     0.387267     0.055691    Uiso  ? C
   C31        1.0     0.959436     0.442070     0.055707    Uiso  ? C
   C32        1.0     0.958654     0.552776     0.055699    Uiso  ? C
   C33        1.0     0.858686     0.606163     0.055655    Uiso  ? C
   C34        1.0     0.055897     0.721299     0.055780    Uiso  ? C
   C35        1.0     0.154058     0.777969     0.055814    Uiso  ? C
   C36        1.0     0.154941     0.889020     0.055821    Uiso  ? C
   C37        1.0     0.055029     0.943481     0.055790    Uiso  ? C
   C38        1.0     0.253081     0.722664     0.055789    Uiso  ? C
   C39        1.0     0.351785     0.777915     0.055751    Uiso  ? C
   C40        1.0     0.354609     0.889104     0.055778    Uiso  ? C
   C41        1.0     0.255149     0.944779     0.055821    Uiso  ? C
   C42        1.0     0.449672     0.720456     0.055671    Uiso  ? C
   C43        1.0     0.553317     0.885757     0.055653    Uiso  ? C
   C44        1.0     0.454952     0.944233     0.055735    Uiso  ? C
   C45        1.0     0.754061     0.882447     0.055634    Uiso  ? C
   C46        1.0     0.655029     0.941362     0.055646    Uiso  ? C
   C47        1.0     0.857049     0.719020     0.055657    Uiso  ? C
   C48        1.0     0.956027     0.775721     0.055730    Uiso  ? C
   C49        1.0     0.955112     0.886837     0.055736    Uiso  ? C
   C50        1.0     0.854088     0.940615     0.055679    Uiso  ? C
   C51        1.0     0.456067     0.392916     0.055673    Uiso  ? C
   C52        1.0     0.662178     0.390744     0.055630    Uiso  ? C
   C53        1.0     0.549131     0.775797     0.055615    Uiso  ? C
   C54        1.0     0.756136     0.769571     0.055618    Uiso  ? C
   N1         1.0     0.762478     0.554207     0.055617    Uiso  ? N
   N2         1.0     0.451196     0.611639     0.055651    Uiso  ? N
   Fe1        1.0     0.643610     0.666034     0.055602    Uiso  ? Fe
   Ni1        1.0     0.563794     0.494147     0.055620    Uiso  ? Ni
