
#======================================================================
# CRYSTAL DATA
#----------------------------------------------------------------------
data_VESTA_phase_1

_chemical_name_common                  'CONTCAR\(4)                           '
_cell_length_a                         12.331300
_cell_length_b                         12.829200
_cell_length_c                         19.994400
_cell_angle_alpha                      89.996696
_cell_angle_beta                       89.998299
_cell_angle_gamma                      89.999496
_cell_volume                           3163.128245
_space_group_name_H-M_alt              'P 1'
_space_group_IT_number                 1

loop_
_space_group_symop_operation_xyz
   'x, y, z'

loop_
   _atom_site_label
   _atom_site_occupancy
   _atom_site_fract_x
   _atom_site_fract_y
   _atom_site_fract_z
   _atom_site_adp_type
   _atom_site_U_iso_or_equiv
   _atom_site_type_symbol
   C1         1.0     0.055514     0.054472     0.049898    Uiso  ? C
   C2         1.0     0.155790     0.109710     0.049960    Uiso  ? C
   C3         1.0     0.155859     0.220443     0.048279    Uiso  ? C
   C4         1.0     0.056365     0.275798     0.046869    Uiso  ? C
   C5         1.0     0.256281     0.055445     0.052698    Uiso  ? C
   C6         1.0     0.356471     0.111605     0.056244    Uiso  ? C
   C7         1.0     0.356267     0.223328     0.055359    Uiso  ? C
   C8         1.0     0.255512     0.276329     0.049975    Uiso  ? C
   C9         1.0     0.456153     0.056584     0.060717    Uiso  ? C
   C10        1.0     0.555666     0.114542     0.063659    Uiso  ? C
   C11        1.0     0.556207     0.227246     0.065083    Uiso  ? C
   C12        1.0     0.454535     0.282750     0.060495    Uiso  ? C
   C13        1.0     0.655402     0.055107     0.062949    Uiso  ? C
   C14        1.0     0.755525     0.111298     0.058873    Uiso  ? C
   C15        1.0     0.756257     0.223603     0.059167    Uiso  ? C
   C16        1.0     0.658381     0.284145     0.066524    Uiso  ? C
   C17        1.0     0.854661     0.054124     0.054791    Uiso  ? C
   C18        1.0     0.955240     0.109618     0.051232    Uiso  ? C
   C19        1.0     0.955965     0.220844     0.049842    Uiso  ? C
   C20        1.0     0.856725     0.277428     0.053104    Uiso  ? C
   C21        1.0     0.057655     0.387026     0.044847    Uiso  ? C
   C22        1.0     0.156117     0.443375     0.044866    Uiso  ? C
   C23        1.0     0.156513     0.554931     0.044576    Uiso  ? C
   C24        1.0     0.057736     0.610640     0.044105    Uiso  ? C
   C25        1.0     0.254911     0.386971     0.048179    Uiso  ? C
   C26        1.0     0.353663     0.441568     0.053365    Uiso  ? C
   C27        1.0     0.354833     0.554903     0.055083    Uiso  ? C
   C28        1.0     0.255660     0.610519     0.048575    Uiso  ? C
   C29        1.0     0.762923     0.447532     0.059465    Uiso  ? C
   C30        1.0     0.859477     0.388794     0.050995    Uiso  ? C
   C31        1.0     0.958884     0.442874     0.045796    Uiso  ? C
   C32        1.0     0.959504     0.553619     0.045414    Uiso  ? C
   C33        1.0     0.860339     0.607639     0.049945    Uiso  ? C
   C34        1.0     0.056498     0.721976     0.045633    Uiso  ? C
   C35        1.0     0.155488     0.777532     0.047600    Uiso  ? C
   C36        1.0     0.155625     0.888764     0.049360    Uiso  ? C
   C37        1.0     0.055306     0.943508     0.049439    Uiso  ? C
   C38        1.0     0.255014     0.721703     0.050040    Uiso  ? C
   C39        1.0     0.353822     0.777112     0.056398    Uiso  ? C
   C40        1.0     0.355464     0.888738     0.056820    Uiso  ? C
   C41        1.0     0.255811     0.944378     0.052554    Uiso  ? C
   C42        1.0     0.451636     0.719660     0.066267    Uiso  ? C
   C43        1.0     0.554469     0.886278     0.067061    Uiso  ? C
   C44        1.0     0.455461     0.944399     0.061848    Uiso  ? C
   C45        1.0     0.754477     0.884013     0.059123    Uiso  ? C
   C46        1.0     0.655278     0.943013     0.063948    Uiso  ? C
   C47        1.0     0.857152     0.720497     0.050977    Uiso  ? C
   C48        1.0     0.956285     0.776809     0.048161    Uiso  ? C
   C49        1.0     0.955083     0.887751     0.050294    Uiso  ? C
   C50        1.0     0.854173     0.941849     0.054574    Uiso  ? C
   C51        1.0     0.663985     0.394834     0.072693    Uiso  ? C
   C52        1.0     0.550723     0.776341     0.072718    Uiso  ? C
   C53        1.0     0.755896     0.771389     0.057698    Uiso  ? C
   C54        1.0     0.452977     0.607074     0.067779    Uiso  ? C
   N1         1.0     0.449906     0.390935     0.059830    Uiso  ? N
   N2         1.0     0.765694     0.556068     0.056932    Uiso  ? N
   Fe1        1.0     0.647709     0.663054     0.074046    Uiso  ? Fe
   Ni1        1.0     0.555279     0.493612     0.083814    Uiso  ? Ni
   H1         1.0     0.619488     0.561881     0.132204    Uiso  ? H
