
#======================================================================
# CRYSTAL DATA
#----------------------------------------------------------------------
data_VESTA_phase_1

_chemical_name_common                  'CONTCAR\(4)                           '
_cell_length_a                         12.331300
_cell_length_b                         12.829200
_cell_length_c                         19.994400
_cell_angle_alpha                      89.996696
_cell_angle_beta                       89.998299
_cell_angle_gamma                      89.999496
_cell_volume                           3163.128245
_space_group_name_H-M_alt              'P 1'
_space_group_IT_number                 1

loop_
_space_group_symop_operation_xyz
   'x, y, z'

loop_
   _atom_site_label
   _atom_site_occupancy
   _atom_site_fract_x
   _atom_site_fract_y
   _atom_site_fract_z
   _atom_site_adp_type
   _atom_site_U_iso_or_equiv
   _atom_site_type_symbol
   C1         1.0     0.055135     0.055051     0.048493    Uiso  ? C
   C2         1.0     0.155409     0.110307     0.048735    Uiso  ? C
   C3         1.0     0.155512     0.221097     0.047193    Uiso  ? C
   C4         1.0     0.055924     0.276476     0.045567    Uiso  ? C
   C5         1.0     0.255921     0.056045     0.051294    Uiso  ? C
   C6         1.0     0.356129     0.112355     0.054875    Uiso  ? C
   C7         1.0     0.356046     0.224193     0.054274    Uiso  ? C
   C8         1.0     0.255142     0.277025     0.048960    Uiso  ? C
   C9         1.0     0.455604     0.057110     0.059381    Uiso  ? C
   C10        1.0     0.555101     0.114906     0.062151    Uiso  ? C
   C11        1.0     0.555600     0.227338     0.063520    Uiso  ? C
   C12        1.0     0.454588     0.283385     0.059651    Uiso  ? C
   C13        1.0     0.654913     0.055838     0.061206    Uiso  ? C
   C14        1.0     0.755081     0.111838     0.056922    Uiso  ? C
   C15        1.0     0.755840     0.223898     0.056862    Uiso  ? C
   C16        1.0     0.657747     0.283888     0.063994    Uiso  ? C
   C17        1.0     0.854368     0.054948     0.053046    Uiso  ? C
   C18        1.0     0.954912     0.110351     0.049661    Uiso  ? C
   C19        1.0     0.955574     0.221511     0.048373    Uiso  ? C
   C20        1.0     0.856169     0.277954     0.051405    Uiso  ? C
   C21        1.0     0.057145     0.387647     0.043313    Uiso  ? C
   C22        1.0     0.155678     0.444001     0.043331    Uiso  ? C
   C23        1.0     0.155753     0.555456     0.042939    Uiso  ? C
   C24        1.0     0.056789     0.611065     0.042450    Uiso  ? C
   C25        1.0     0.254805     0.387648     0.046991    Uiso  ? C
   C26        1.0     0.353396     0.442497     0.052508    Uiso  ? C
   C27        1.0     0.354188     0.555423     0.053814    Uiso  ? C
   C28        1.0     0.254984     0.611030     0.046875    Uiso  ? C
   C29        1.0     0.761325     0.448011     0.056690    Uiso  ? C
   C30        1.0     0.858564     0.389195     0.049538    Uiso  ? C
   C31        1.0     0.958023     0.443488     0.044268    Uiso  ? C
   C32        1.0     0.958414     0.554126     0.043581    Uiso  ? C
   C33        1.0     0.858406     0.607747     0.047193    Uiso  ? C
   C34        1.0     0.055784     0.722440     0.043923    Uiso  ? C
   C35        1.0     0.154897     0.777985     0.046059    Uiso  ? C
   C36        1.0     0.155164     0.889283     0.047828    Uiso  ? C
   C37        1.0     0.054863     0.944033     0.047933    Uiso  ? C
   C38        1.0     0.254576     0.722163     0.048620    Uiso  ? C
   C39        1.0     0.353509     0.777455     0.055290    Uiso  ? C
   C40        1.0     0.355096     0.889118     0.055526    Uiso  ? C
   C41        1.0     0.255395     0.944900     0.051026    Uiso  ? C
   C42        1.0     0.451648     0.719821     0.065089    Uiso  ? C
   C43        1.0     0.554092     0.887156     0.065946    Uiso  ? C
   C44        1.0     0.454946     0.944969     0.060620    Uiso  ? C
   C45        1.0     0.754119     0.885505     0.057879    Uiso  ? C
   C46        1.0     0.654780     0.943975     0.062610    Uiso  ? C
   C47        1.0     0.855882     0.721146     0.048632    Uiso  ? C
   C48        1.0     0.955487     0.777214     0.046254    Uiso  ? C
   C49        1.0     0.954562     0.888256     0.048701    Uiso  ? C
   C50        1.0     0.853929     0.942854     0.052957    Uiso  ? C
   C51        1.0     0.662731     0.393822     0.069586    Uiso  ? C
   C52        1.0     0.550403     0.777267     0.071815    Uiso  ? C
   C53        1.0     0.755818     0.773473     0.056833    Uiso  ? C
   C54        1.0     0.452218     0.607279     0.066918    Uiso  ? C
   N1         1.0     0.450257     0.392070     0.059975    Uiso  ? N
   N2         1.0     0.763946     0.555850     0.052835    Uiso  ? N
   Fe1        1.0     0.651009     0.667876     0.080029    Uiso  ? Fe
   Ni1        1.0     0.554169     0.491057     0.086345    Uiso  ? Ni
   O1         1.0     0.628788     0.574352     0.154362    Uiso  ? O
   H1         1.0     0.570504     0.599949     0.183081    Uiso  ? H
