
#======================================================================
# CRYSTAL DATA
#----------------------------------------------------------------------
data_VESTA_phase_1

_chemical_name_common                  'CONTCAR\(4)                           '
_cell_length_a                         12.331300
_cell_length_b                         12.829200
_cell_length_c                         19.994400
_cell_angle_alpha                      89.996696
_cell_angle_beta                       89.998299
_cell_angle_gamma                      89.999496
_cell_volume                           3163.128245
_space_group_name_H-M_alt              'P 1'
_space_group_IT_number                 1

loop_
_space_group_symop_operation_xyz
   'x, y, z'

loop_
   _atom_site_label
   _atom_site_occupancy
   _atom_site_fract_x
   _atom_site_fract_y
   _atom_site_fract_z
   _atom_site_adp_type
   _atom_site_U_iso_or_equiv
   _atom_site_type_symbol
   C1         1.0     0.055312     0.054173     0.051379    Uiso  ? C
   C2         1.0     0.155594     0.109284     0.052136    Uiso  ? C
   C3         1.0     0.155502     0.220121     0.050582    Uiso  ? C
   C4         1.0     0.055923     0.275708     0.047994    Uiso  ? C
   C5         1.0     0.256078     0.054793     0.054661    Uiso  ? C
   C6         1.0     0.356231     0.110965     0.057943    Uiso  ? C
   C7         1.0     0.355755     0.222567     0.057748    Uiso  ? C
   C8         1.0     0.255079     0.275771     0.052608    Uiso  ? C
   C9         1.0     0.456074     0.056018     0.061540    Uiso  ? C
   C10        1.0     0.555484     0.113846     0.063415    Uiso  ? C
   C11        1.0     0.555526     0.226481     0.064726    Uiso  ? C
   C12        1.0     0.454157     0.281563     0.063164    Uiso  ? C
   C13        1.0     0.655260     0.055171     0.061814    Uiso  ? C
   C14        1.0     0.755053     0.111552     0.057605    Uiso  ? C
   C15        1.0     0.755382     0.223832     0.056603    Uiso  ? C
   C16        1.0     0.656707     0.284117     0.062513    Uiso  ? C
   C17        1.0     0.854468     0.054369     0.054463    Uiso  ? C
   C18        1.0     0.954978     0.109662     0.051702    Uiso  ? C
   C19        1.0     0.955425     0.220964     0.049934    Uiso  ? C
   C20        1.0     0.855854     0.277747     0.051459    Uiso  ? C
   C21        1.0     0.057350     0.386778     0.045361    Uiso  ? C
   C22        1.0     0.156199     0.442878     0.045924    Uiso  ? C
   C23        1.0     0.156925     0.554304     0.045682    Uiso  ? C
   C24        1.0     0.058021     0.610173     0.044475    Uiso  ? C
   C25        1.0     0.255054     0.386409     0.050007    Uiso  ? C
   C26        1.0     0.354084     0.440649     0.055351    Uiso  ? C
   C27        1.0     0.356135     0.553343     0.054085    Uiso  ? C
   C28        1.0     0.256454     0.609559     0.049126    Uiso  ? C
   C29        1.0     0.760673     0.448874     0.052223    Uiso  ? C
   C30        1.0     0.858327     0.389037     0.048448    Uiso  ? C
   C31        1.0     0.958312     0.442845     0.044705    Uiso  ? C
   C32        1.0     0.959406     0.553506     0.043975    Uiso  ? C
   C33        1.0     0.859676     0.607509     0.045436    Uiso  ? C
   C34        1.0     0.056794     0.721470     0.046088    Uiso  ? C
   C35        1.0     0.155972     0.776849     0.048753    Uiso  ? C
   C36        1.0     0.155850     0.888134     0.050885    Uiso  ? C
   C37        1.0     0.055438     0.943150     0.050771    Uiso  ? C
   C38        1.0     0.255876     0.720810     0.050809    Uiso  ? C
   C39        1.0     0.354802     0.776232     0.056679    Uiso  ? C
   C40        1.0     0.355879     0.887882     0.057632    Uiso  ? C
   C41        1.0     0.255950     0.943598     0.054100    Uiso  ? C
   C42        1.0     0.454080     0.718823     0.063714    Uiso  ? C
   C43        1.0     0.555063     0.886513     0.065958    Uiso  ? C
   C44        1.0     0.455713     0.943883     0.062075    Uiso  ? C
   C45        1.0     0.754612     0.884379     0.058362    Uiso  ? C
   C46        1.0     0.655442     0.943152     0.062901    Uiso  ? C
   C47        1.0     0.856773     0.720467     0.048887    Uiso  ? C
   C48        1.0     0.956374     0.776429     0.047935    Uiso  ? C
   C49        1.0     0.955202     0.887514     0.050792    Uiso  ? C
   C50        1.0     0.854342     0.942070     0.054378    Uiso  ? C
   C51        1.0     0.662168     0.394871     0.065180    Uiso  ? C
   C52        1.0     0.552271     0.776532     0.070219    Uiso  ? C
   C53        1.0     0.756078     0.772214     0.056378    Uiso  ? C
   C54        1.0     0.454544     0.606557     0.063052    Uiso  ? C
   N1         1.0     0.449807     0.389581     0.065216    Uiso  ? N
   N2         1.0     0.764516     0.556017     0.047251    Uiso  ? N
   Fe1        1.0     0.648702     0.664374     0.075086    Uiso  ? Fe
   Ni1        1.0     0.553999     0.490064     0.092714    Uiso  ? Ni
   O1         1.0     0.622984     0.581850     0.144136    Uiso  ? O
