
#======================================================================
# CRYSTAL DATA
#----------------------------------------------------------------------
data_VESTA_phase_1

_chemical_name_common                  'CONTCAR\(4)                           '
_cell_length_a                         12.331300
_cell_length_b                         12.829200
_cell_length_c                         19.994400
_cell_angle_alpha                      89.996696
_cell_angle_beta                       89.998299
_cell_angle_gamma                      89.999496
_cell_volume                           3163.128245
_space_group_name_H-M_alt              'P 1'
_space_group_IT_number                 1

loop_
_space_group_symop_operation_xyz
   'x, y, z'

loop_
   _atom_site_label
   _atom_site_occupancy
   _atom_site_fract_x
   _atom_site_fract_y
   _atom_site_fract_z
   _atom_site_adp_type
   _atom_site_U_iso_or_equiv
   _atom_site_type_symbol
   C1         1.0     0.054957     0.053067     0.052435    Uiso  ? C
   C2         1.0     0.155251     0.108517     0.052255    Uiso  ? C
   C3         1.0     0.155649     0.219308     0.051519    Uiso  ? C
   C4         1.0     0.056084     0.274668     0.050861    Uiso  ? C
   C5         1.0     0.255752     0.054344     0.053116    Uiso  ? C
   C6         1.0     0.356008     0.110503     0.055451    Uiso  ? C
   C7         1.0     0.356067     0.222183     0.055386    Uiso  ? C
   C8         1.0     0.255282     0.275273     0.052138    Uiso  ? C
   C9         1.0     0.455806     0.055319     0.057841    Uiso  ? C
   C10        1.0     0.555428     0.112890     0.060597    Uiso  ? C
   C11        1.0     0.555975     0.225591     0.061768    Uiso  ? C
   C12        1.0     0.454809     0.281349     0.058463    Uiso  ? C
   C13        1.0     0.655101     0.053857     0.060869    Uiso  ? C
   C14        1.0     0.755203     0.109902     0.058790    Uiso  ? C
   C15        1.0     0.756045     0.222104     0.058816    Uiso  ? C
   C16        1.0     0.657672     0.282290     0.063363    Uiso  ? C
   C17        1.0     0.854222     0.052360     0.056337    Uiso  ? C
   C18        1.0     0.954737     0.108101     0.053834    Uiso  ? C
   C19        1.0     0.955766     0.219555     0.052902    Uiso  ? C
   C20        1.0     0.856534     0.276311     0.054763    Uiso  ? C
   C21        1.0     0.057808     0.385832     0.049316    Uiso  ? C
   C22        1.0     0.156263     0.442320     0.048466    Uiso  ? C
   C23        1.0     0.156506     0.553596     0.047556    Uiso  ? C
   C24        1.0     0.057200     0.609273     0.047980    Uiso  ? C
   C25        1.0     0.255353     0.386037     0.050253    Uiso  ? C
   C26        1.0     0.354206     0.440714     0.052247    Uiso  ? C
   C27        1.0     0.355920     0.553790     0.051180    Uiso  ? C
   C28        1.0     0.255726     0.609285     0.048313    Uiso  ? C
   C29        1.0     0.762673     0.446801     0.058604    Uiso  ? C
   C30        1.0     0.859593     0.387689     0.053087    Uiso  ? C
   C31        1.0     0.959094     0.441763     0.049908    Uiso  ? C
   C32        1.0     0.959169     0.552274     0.049573    Uiso  ? C
   C33        1.0     0.859287     0.606341     0.052849    Uiso  ? C
   C34        1.0     0.055725     0.720470     0.048688    Uiso  ? C
   C35        1.0     0.154730     0.776213     0.048744    Uiso  ? C
   C36        1.0     0.154943     0.887399     0.050271    Uiso  ? C
   C37        1.0     0.054490     0.942040     0.051646    Uiso  ? C
   C38        1.0     0.254529     0.720497     0.048630    Uiso  ? C
   C39        1.0     0.353318     0.776415     0.051240    Uiso  ? C
   C40        1.0     0.354883     0.887817     0.053166    Uiso  ? C
   C41        1.0     0.255131     0.943229     0.051844    Uiso  ? C
   C42        1.0     0.452102     0.719353     0.056116    Uiso  ? C
   C43        1.0     0.554212     0.885889     0.061539    Uiso  ? C
   C44        1.0     0.455117     0.943408     0.057372    Uiso  ? C
   C45        1.0     0.753529     0.881625     0.059787    Uiso  ? C
   C46        1.0     0.654902     0.941589     0.061622    Uiso  ? C
   C47        1.0     0.856236     0.718585     0.053710    Uiso  ? C
   C48        1.0     0.955210     0.775050     0.051151    Uiso  ? C
   C49        1.0     0.954446     0.886108     0.052899    Uiso  ? C
   C50        1.0     0.853328     0.939820     0.056437    Uiso  ? C
   C51        1.0     0.663173     0.392833     0.067843    Uiso  ? C
   C52        1.0     0.551282     0.775712     0.063298    Uiso  ? C
   C53        1.0     0.753686     0.767937     0.059179    Uiso  ? C
   C54        1.0     0.455204     0.607483     0.056906    Uiso  ? C
   N1         1.0     0.451143     0.389527     0.057163    Uiso  ? N
   N2         1.0     0.764146     0.555223     0.057652    Uiso  ? N
   Fe1        1.0     0.640991     0.662768     0.070075    Uiso  ? Fe
   Ni1        1.0     0.557632     0.493163     0.073479    Uiso  ? Ni
   H1         1.0     0.659596     0.689620     0.140527    Uiso  ? H
   H2         1.0     0.611868     0.571519     0.125779    Uiso  ? H
