
#======================================================================
# CRYSTAL DATA
#----------------------------------------------------------------------
data_VESTA_phase_1

_chemical_name_common                  'CONTCAR\(4)                           '
_cell_length_a                         12.331300
_cell_length_b                         12.829200
_cell_length_c                         19.994400
_cell_angle_alpha                      89.996696
_cell_angle_beta                       89.998299
_cell_angle_gamma                      89.999496
_cell_volume                           3163.128245
_space_group_name_H-M_alt              'P 1'
_space_group_IT_number                 1

loop_
_space_group_symop_operation_xyz
   'x, y, z'

loop_
   _atom_site_label
   _atom_site_occupancy
   _atom_site_fract_x
   _atom_site_fract_y
   _atom_site_fract_z
   _atom_site_adp_type
   _atom_site_U_iso_or_equiv
   _atom_site_type_symbol
   C1         1.0     0.054488     0.052701     0.045311    Uiso  ? C
   C2         1.0     0.154734     0.107694     0.045075    Uiso  ? C
   C3         1.0     0.154472     0.218629     0.044258    Uiso  ? C
   C4         1.0     0.054816     0.274438     0.044028    Uiso  ? C
   C5         1.0     0.255274     0.052838     0.046883    Uiso  ? C
   C6         1.0     0.355219     0.109093     0.049332    Uiso  ? C
   C7         1.0     0.354710     0.220686     0.048979    Uiso  ? C
   C8         1.0     0.254113     0.274330     0.045490    Uiso  ? C
   C9         1.0     0.455068     0.054169     0.052804    Uiso  ? C
   C10        1.0     0.554372     0.112089     0.055517    Uiso  ? C
   C11        1.0     0.554415     0.224142     0.057245    Uiso  ? C
   C12        1.0     0.453230     0.279275     0.053800    Uiso  ? C
   C13        1.0     0.654449     0.054030     0.055347    Uiso  ? C
   C14        1.0     0.754329     0.110121     0.052375    Uiso  ? C
   C15        1.0     0.754595     0.222198     0.052916    Uiso  ? C
   C16        1.0     0.655596     0.281548     0.059024    Uiso  ? C
   C17        1.0     0.853879     0.053204     0.049226    Uiso  ? C
   C18        1.0     0.954269     0.108490     0.046455    Uiso  ? C
   C19        1.0     0.954451     0.219819     0.046021    Uiso  ? C
   C20        1.0     0.854744     0.276565     0.049206    Uiso  ? C
   C21        1.0     0.055909     0.385688     0.043527    Uiso  ? C
   C22        1.0     0.154893     0.441595     0.043487    Uiso  ? C
   C23        1.0     0.155838     0.552919     0.043953    Uiso  ? C
   C24        1.0     0.056341     0.608609     0.044020    Uiso  ? C
   C25        1.0     0.254052     0.385059     0.045021    Uiso  ? C
   C26        1.0     0.353418     0.439169     0.049474    Uiso  ? C
   C27        1.0     0.356206     0.552096     0.052293    Uiso  ? C
   C28        1.0     0.255784     0.607914     0.047022    Uiso  ? C
   C29        1.0     0.758929     0.447212     0.057467    Uiso  ? C
   C30        1.0     0.856628     0.387953     0.049443    Uiso  ? C
   C31        1.0     0.956669     0.441741     0.045560    Uiso  ? C
   C32        1.0     0.957394     0.552290     0.045860    Uiso  ? C
   C33        1.0     0.857155     0.606082     0.050663    Uiso  ? C
   C34        1.0     0.055646     0.719832     0.044684    Uiso  ? C
   C35        1.0     0.155207     0.775014     0.045557    Uiso  ? C
   C36        1.0     0.155051     0.886297     0.045779    Uiso  ? C
   C37        1.0     0.054603     0.941505     0.045526    Uiso  ? C
   C38        1.0     0.255444     0.718971     0.047894    Uiso  ? C
   C39        1.0     0.355104     0.773972     0.052059    Uiso  ? C
   C40        1.0     0.355492     0.885779     0.050797    Uiso  ? C
   C41        1.0     0.255313     0.941596     0.047381    Uiso  ? C
   C42        1.0     0.454856     0.716258     0.059438    Uiso  ? C
   C43        1.0     0.554555     0.885223     0.057845    Uiso  ? C
   C44        1.0     0.454911     0.942252     0.053676    Uiso  ? C
   C45        1.0     0.753955     0.884385     0.054331    Uiso  ? C
   C46        1.0     0.654631     0.942429     0.056638    Uiso  ? C
   C47        1.0     0.855432     0.718880     0.049934    Uiso  ? C
   C48        1.0     0.955107     0.774827     0.046351    Uiso  ? C
   C49        1.0     0.954401     0.886044     0.046854    Uiso  ? C
   C50        1.0     0.853870     0.941191     0.049684    Uiso  ? C
   C51        1.0     0.660859     0.391221     0.066227    Uiso  ? C
   C52        1.0     0.552635     0.775759     0.062469    Uiso  ? C
   C53        1.0     0.755688     0.772877     0.055971    Uiso  ? C
   C54        1.0     0.455458     0.603817     0.063053    Uiso  ? C
   N1         1.0     0.449299     0.386964     0.054817    Uiso  ? N
   N2         1.0     0.761728     0.555276     0.058005    Uiso  ? N
   Fe1        1.0     0.653286     0.672957     0.088616    Uiso  ? Fe
   Ni1        1.0     0.548659     0.479038     0.094943    Uiso  ? Ni
   O1         1.0     0.590158     0.510951     0.177395    Uiso  ? O
   O2         1.0     0.683693     0.692463     0.179195    Uiso  ? O
   H1         1.0     0.712252     0.759342     0.193721    Uiso  ? H
   H2         1.0     0.622678     0.577742     0.192252    Uiso  ? H
