
#======================================================================
# CRYSTAL DATA
#----------------------------------------------------------------------
data_VESTA_phase_1

_chemical_name_common                  'CONTCAR\(4)                           '
_cell_length_a                         12.331300
_cell_length_b                         12.829200
_cell_length_c                         19.994400
_cell_angle_alpha                      89.996696
_cell_angle_beta                       89.998299
_cell_angle_gamma                      89.999496
_cell_volume                           3163.128245
_space_group_name_H-M_alt              'P 1'
_space_group_IT_number                 1

loop_
_space_group_symop_operation_xyz
   'x, y, z'

loop_
   _atom_site_label
   _atom_site_occupancy
   _atom_site_fract_x
   _atom_site_fract_y
   _atom_site_fract_z
   _atom_site_adp_type
   _atom_site_U_iso_or_equiv
   _atom_site_type_symbol
   C1         1.0     0.055269     0.053995     0.048465    Uiso  ? C
   C2         1.0     0.155466     0.109530     0.048916    Uiso  ? C
   C3         1.0     0.155950     0.220446     0.048348    Uiso  ? C
   C4         1.0     0.056390     0.275616     0.047055    Uiso  ? C
   C5         1.0     0.255755     0.055341     0.050796    Uiso  ? C
   C6         1.0     0.356027     0.111597     0.053946    Uiso  ? C
   C7         1.0     0.356293     0.223268     0.054236    Uiso  ? C
   C8         1.0     0.255590     0.276460     0.050348    Uiso  ? C
   C9         1.0     0.455507     0.056361     0.057321    Uiso  ? C
   C10        1.0     0.555194     0.113571     0.059922    Uiso  ? C
   C11        1.0     0.555810     0.225787     0.061761    Uiso  ? C
   C12        1.0     0.455144     0.281955     0.058998    Uiso  ? C
   C13        1.0     0.655063     0.054708     0.058910    Uiso  ? C
   C14        1.0     0.755373     0.110561     0.055208    Uiso  ? C
   C15        1.0     0.756288     0.222373     0.055210    Uiso  ? C
   C16        1.0     0.657867     0.281995     0.062139    Uiso  ? C
   C17        1.0     0.854548     0.053615     0.052018    Uiso  ? C
   C18        1.0     0.955122     0.109136     0.049340    Uiso  ? C
   C19        1.0     0.956056     0.220304     0.048554    Uiso  ? C
   C20        1.0     0.856651     0.276510     0.050797    Uiso  ? C
   C21        1.0     0.057815     0.386751     0.045944    Uiso  ? C
   C22        1.0     0.156472     0.443204     0.046781    Uiso  ? C
   C23        1.0     0.156664     0.554641     0.046540    Uiso  ? C
   C24        1.0     0.057214     0.609945     0.045711    Uiso  ? C
   C25        1.0     0.255771     0.387227     0.049576    Uiso  ? C
   C26        1.0     0.355006     0.441980     0.054017    Uiso  ? C
   C27        1.0     0.356710     0.555061     0.055171    Uiso  ? C
   C28        1.0     0.256149     0.610135     0.049418    Uiso  ? C
   C29        1.0     0.761781     0.446319     0.055773    Uiso  ? C
   C30        1.0     0.859146     0.387720     0.049490    Uiso  ? C
   C31        1.0     0.958559     0.442330     0.046240    Uiso  ? C
   C32        1.0     0.958653     0.552966     0.046317    Uiso  ? C
   C33        1.0     0.858220     0.606201     0.048671    Uiso  ? C
   C34        1.0     0.055595     0.721188     0.046180    Uiso  ? C
   C35        1.0     0.154597     0.776869     0.047328    Uiso  ? C
   C36        1.0     0.154968     0.888303     0.048097    Uiso  ? C
   C37        1.0     0.054753     0.942953     0.048124    Uiso  ? C
   C38        1.0     0.254391     0.721296     0.049529    Uiso  ? C
   C39        1.0     0.352881     0.777403     0.053877    Uiso  ? C
   C40        1.0     0.354674     0.888785     0.053704    Uiso  ? C
   C41        1.0     0.254981     0.944254     0.050356    Uiso  ? C
   C42        1.0     0.451236     0.720749     0.062862    Uiso  ? C
   C43        1.0     0.553856     0.887223     0.062319    Uiso  ? C
   C44        1.0     0.454567     0.944494     0.057879    Uiso  ? C
   C45        1.0     0.753770     0.884014     0.056229    Uiso  ? C
   C46        1.0     0.654749     0.943137     0.059960    Uiso  ? C
   C47        1.0     0.855362     0.719647     0.049534    Uiso  ? C
   C48        1.0     0.955014     0.775798     0.047576    Uiso  ? C
   C49        1.0     0.954396     0.886958     0.048980    Uiso  ? C
   C50        1.0     0.853826     0.941415     0.052191    Uiso  ? C
   C51        1.0     0.663512     0.391345     0.068210    Uiso  ? C
   C52        1.0     0.549326     0.778065     0.067030    Uiso  ? C
   C53        1.0     0.754905     0.771973     0.055362    Uiso  ? C
   C54        1.0     0.455389     0.608320     0.065740    Uiso  ? C
   N1         1.0     0.451605     0.390541     0.059683    Uiso  ? N
   N2         1.0     0.763551     0.553872     0.052494    Uiso  ? N
   Fe1        1.0     0.644794     0.666163     0.069535    Uiso  ? Fe
   Ni1        1.0     0.556880     0.487213     0.088851    Uiso  ? Ni
   O1         1.0     0.625251     0.544710     0.162595    Uiso  ? O
   O2         1.0     0.648124     0.650904     0.157836    Uiso  ? O
