
#======================================================================
# CRYSTAL DATA
#----------------------------------------------------------------------
data_VESTA_phase_1

_chemical_name_common                  'POSCAR\(2)                            '
_cell_length_a                         12.331300
_cell_length_b                         12.829200
_cell_length_c                         19.994400
_cell_angle_alpha                      89.996696
_cell_angle_beta                       89.998299
_cell_angle_gamma                      89.999496
_cell_volume                           3163.128245
_space_group_name_H-M_alt              'P 1'
_space_group_IT_number                 1

loop_
_space_group_symop_operation_xyz
   'x, y, z'

loop_
   _atom_site_label
   _atom_site_occupancy
   _atom_site_fract_x
   _atom_site_fract_y
   _atom_site_fract_z
   _atom_site_adp_type
   _atom_site_U_iso_or_equiv
   _atom_site_type_symbol
   C1         1.0     0.055798     0.053921     0.055777    Uiso  ? C
   C2         1.0     0.155877     0.109711     0.055785    Uiso  ? C
   C3         1.0     0.156456     0.220581     0.055765    Uiso  ? C
   C4         1.0     0.056984     0.275727     0.055749    Uiso  ? C
   C5         1.0     0.256156     0.055560     0.055805    Uiso  ? C
   C6         1.0     0.356449     0.111866     0.055772    Uiso  ? C
   C7         1.0     0.356761     0.223553     0.055741    Uiso  ? C
   C8         1.0     0.256001     0.276728     0.055755    Uiso  ? C
   C9         1.0     0.455976     0.056598     0.055741    Uiso  ? C
   C10        1.0     0.555797     0.113700     0.055693    Uiso  ? C
   C11        1.0     0.556420     0.225885     0.055659    Uiso  ? C
   C12        1.0     0.455798     0.282423     0.055671    Uiso  ? C
   C13        1.0     0.655637     0.054794     0.055695    Uiso  ? C
   C14        1.0     0.756124     0.110353     0.055706    Uiso  ? C
   C15        1.0     0.757119     0.222098     0.055702    Uiso  ? C
   C16        1.0     0.658484     0.281589     0.055653    Uiso  ? C
   C17        1.0     0.855145     0.053155     0.055714    Uiso  ? C
   C18        1.0     0.955696     0.108910     0.055745    Uiso  ? C
   C19        1.0     0.956879     0.220184     0.055739    Uiso  ? C
   C20        1.0     0.857615     0.276480     0.055716    Uiso  ? C
   C21        1.0     0.058590     0.387004     0.055746    Uiso  ? C
   C22        1.0     0.157021     0.443595     0.055771    Uiso  ? C
   C23        1.0     0.156903     0.554899     0.055785    Uiso  ? C
   C24        1.0     0.057349     0.610204     0.055764    Uiso  ? C
   C25        1.0     0.256191     0.387588     0.055752    Uiso  ? C
   C26        1.0     0.355514     0.442299     0.055710    Uiso  ? C
   C27        1.0     0.357403     0.555545     0.055728    Uiso  ? C
   C28        1.0     0.256505     0.610367     0.055782    Uiso  ? C
   C29        1.0     0.763141     0.445777     0.055649    Uiso  ? C
   C30        1.0     0.860793     0.387677     0.055689    Uiso  ? C
   C31        1.0     0.959699     0.442519     0.055712    Uiso  ? C
   C32        1.0     0.958660     0.553305     0.055709    Uiso  ? C
   C33        1.0     0.858211     0.606802     0.055661    Uiso  ? C
   C34        1.0     0.056019     0.721310     0.055777    Uiso  ? C
   C35        1.0     0.154917     0.777048     0.055809    Uiso  ? C
   C36        1.0     0.155319     0.888331     0.055818    Uiso  ? C
   C37        1.0     0.055175     0.942898     0.055787    Uiso  ? C
   C38        1.0     0.254553     0.721569     0.055797    Uiso  ? C
   C39        1.0     0.352897     0.777910     0.055765    Uiso  ? C
   C40        1.0     0.354939     0.889154     0.055784    Uiso  ? C
   C41        1.0     0.255282     0.944505     0.055820    Uiso  ? C
   C42        1.0     0.452081     0.721473     0.055690    Uiso  ? C
   C43        1.0     0.554378     0.887802     0.055683    Uiso  ? C
   C44        1.0     0.455091     0.944988     0.055742    Uiso  ? C
   C45        1.0     0.753997     0.882986     0.055645    Uiso  ? C
   C46        1.0     0.655278     0.943132     0.055671    Uiso  ? C
   C47        1.0     0.856179     0.719584     0.055664    Uiso  ? C
   C48        1.0     0.955742     0.775747     0.055732    Uiso  ? C
   C49        1.0     0.954980     0.886785     0.055737    Uiso  ? C
   C50        1.0     0.854129     0.940864     0.055687    Uiso  ? C
   C51        1.0     0.663788     0.391214     0.055630    Uiso  ? C
   C52        1.0     0.550496     0.778494     0.055643    Uiso  ? C
   C53        1.0     0.754716     0.770166     0.055624    Uiso  ? C
   C54        1.0     0.457562     0.609348     0.055671    Uiso  ? C
   N1         1.0     0.452219     0.390756     0.055645    Uiso  ? N
   N2         1.0     0.762349     0.554484     0.055627    Uiso  ? N
   Fe1        1.0     0.638932     0.663116     0.055615    Uiso  ? Fe
   Ni1        1.0     0.563199     0.493539     0.055618    Uiso  ? Ni
