
#======================================================================
# CRYSTAL DATA
#----------------------------------------------------------------------
data_VESTA_phase_1

_chemical_name_common                  'CONTCAR\(2)\(4)                       '
_cell_length_a                         12.331300
_cell_length_b                         12.829200
_cell_length_c                         19.994400
_cell_angle_alpha                      89.996696
_cell_angle_beta                       89.998299
_cell_angle_gamma                      89.999496
_cell_volume                           3163.128245
_space_group_name_H-M_alt              'P 1'
_space_group_IT_number                 1

loop_
_space_group_symop_operation_xyz
   'x, y, z'

loop_
   _atom_site_label
   _atom_site_occupancy
   _atom_site_fract_x
   _atom_site_fract_y
   _atom_site_fract_z
   _atom_site_adp_type
   _atom_site_U_iso_or_equiv
   _atom_site_type_symbol
   C1         1.0     0.056252     0.054733     0.051136    Uiso  ? C
   C2         1.0     0.156844     0.110058     0.051585    Uiso  ? C
   C3         1.0     0.156721     0.220832     0.050083    Uiso  ? C
   C4         1.0     0.056378     0.275994     0.048611    Uiso  ? C
   C5         1.0     0.257611     0.055181     0.054164    Uiso  ? C
   C6         1.0     0.357919     0.111254     0.057226    Uiso  ? C
   C7         1.0     0.357814     0.223483     0.056091    Uiso  ? C
   C8         1.0     0.256658     0.277009     0.051282    Uiso  ? C
   C9         1.0     0.457963     0.054939     0.061325    Uiso  ? C
   C10        1.0     0.558193     0.112608     0.063331    Uiso  ? C
   C11        1.0     0.558723     0.226302     0.063409    Uiso  ? C
   C12        1.0     0.457374     0.282753     0.059851    Uiso  ? C
   C13        1.0     0.656712     0.052234     0.062686    Uiso  ? C
   C14        1.0     0.755452     0.110047     0.058721    Uiso  ? C
   C15        1.0     0.756219     0.222991     0.058847    Uiso  ? C
   C16        1.0     0.659261     0.283837     0.063850    Uiso  ? C
   C17        1.0     0.855336     0.053837     0.054833    Uiso  ? C
   C18        1.0     0.955882     0.109394     0.052221    Uiso  ? C
   C19        1.0     0.956391     0.220703     0.051133    Uiso  ? C
   C20        1.0     0.856913     0.276891     0.053596    Uiso  ? C
   C21        1.0     0.056093     0.387197     0.046298    Uiso  ? C
   C22        1.0     0.154941     0.443300     0.045821    Uiso  ? C
   C23        1.0     0.154443     0.554338     0.045087    Uiso  ? C
   C24        1.0     0.056124     0.610603     0.044332    Uiso  ? C
   C25        1.0     0.254402     0.388003     0.049000    Uiso  ? C
   C26        1.0     0.352504     0.444605     0.052925    Uiso  ? C
   C27        1.0     0.350774     0.556574     0.054453    Uiso  ? C
   C28        1.0     0.252807     0.611411     0.048789    Uiso  ? C
   C29        1.0     0.760200     0.445912     0.057341    Uiso  ? C
   C30        1.0     0.858103     0.387922     0.051225    Uiso  ? C
   C31        1.0     0.957159     0.443191     0.046674    Uiso  ? C
   C32        1.0     0.957068     0.554539     0.045487    Uiso  ? C
   C33        1.0     0.857736     0.608205     0.048792    Uiso  ? C
   C34        1.0     0.056263     0.721498     0.045706    Uiso  ? C
   C35        1.0     0.155142     0.778094     0.047938    Uiso  ? C
   C36        1.0     0.156484     0.888752     0.050090    Uiso  ? C
   C37        1.0     0.056254     0.943807     0.050050    Uiso  ? C
   C38        1.0     0.253830     0.722078     0.050347    Uiso  ? C
   C39        1.0     0.353801     0.775277     0.056468    Uiso  ? C
   C40        1.0     0.356649     0.887205     0.057807    Uiso  ? C
   C41        1.0     0.257194     0.943675     0.053811    Uiso  ? C
   C42        1.0     0.450249     0.714943     0.064865    Uiso  ? C
   C43        1.0     0.555312     0.881280     0.067955    Uiso  ? C
   C44        1.0     0.457234     0.942161     0.062710    Uiso  ? C
   C45        1.0     0.757268     0.882554     0.058274    Uiso  ? C
   C46        1.0     0.656247     0.938404     0.064172    Uiso  ? C
   C47        1.0     0.857553     0.721193     0.049572    Uiso  ? C
   C48        1.0     0.956828     0.776576     0.047760    Uiso  ? C
   C49        1.0     0.956546     0.887882     0.050153    Uiso  ? C
   C50        1.0     0.855771     0.941968     0.053963    Uiso  ? C
   C51        1.0     0.452670     0.393543     0.058964    Uiso  ? C
   C52        1.0     0.549953     0.769488     0.074250    Uiso  ? C
   N1         1.0     0.761228     0.553800     0.055181    Uiso  ? N
   N2         1.0     0.760646     0.774428     0.055992    Uiso  ? N
   N3         1.0     0.446635     0.606174     0.064292    Uiso  ? N
   N4         1.0     0.663912     0.394086     0.066939    Uiso  ? N
   Fe1        1.0     0.659195     0.667598     0.081873    Uiso  ? Fe
   Ni1        1.0     0.555715     0.496965     0.076878    Uiso  ? Ni
   H1         1.0     0.604121     0.583688     0.132578    Uiso  ? H
