
#======================================================================
# CRYSTAL DATA
#----------------------------------------------------------------------
data_VESTA_phase_1

_chemical_name_common                  'CONTCAR\(2)\(4)                       '
_cell_length_a                         12.331300
_cell_length_b                         12.829200
_cell_length_c                         19.994400
_cell_angle_alpha                      89.996696
_cell_angle_beta                       89.998299
_cell_angle_gamma                      89.999496
_cell_volume                           3163.128245
_space_group_name_H-M_alt              'P 1'
_space_group_IT_number                 1

loop_
_space_group_symop_operation_xyz
   'x, y, z'

loop_
   _atom_site_label
   _atom_site_occupancy
   _atom_site_fract_x
   _atom_site_fract_y
   _atom_site_fract_z
   _atom_site_adp_type
   _atom_site_U_iso_or_equiv
   _atom_site_type_symbol
   C1         1.0     0.056151     0.055310     0.049343    Uiso  ? C
   C2         1.0     0.156699     0.110654     0.049413    Uiso  ? C
   C3         1.0     0.156577     0.221493     0.048012    Uiso  ? C
   C4         1.0     0.056191     0.276651     0.047327    Uiso  ? C
   C5         1.0     0.257434     0.055665     0.051690    Uiso  ? C
   C6         1.0     0.357772     0.111714     0.054454    Uiso  ? C
   C7         1.0     0.357727     0.223917     0.053237    Uiso  ? C
   C8         1.0     0.256559     0.277614     0.048810    Uiso  ? C
   C9         1.0     0.457809     0.055406     0.058653    Uiso  ? C
   C10        1.0     0.557909     0.112945     0.061104    Uiso  ? C
   C11        1.0     0.558459     0.226442     0.061414    Uiso  ? C
   C12        1.0     0.457473     0.282852     0.057247    Uiso  ? C
   C13        1.0     0.656470     0.052890     0.060895    Uiso  ? C
   C14        1.0     0.755474     0.110629     0.057502    Uiso  ? C
   C15        1.0     0.756343     0.223254     0.057966    Uiso  ? C
   C16        1.0     0.659063     0.283914     0.062501    Uiso  ? C
   C17        1.0     0.855337     0.054535     0.053499    Uiso  ? C
   C18        1.0     0.955777     0.110074     0.050806    Uiso  ? C
   C19        1.0     0.956237     0.221349     0.050205    Uiso  ? C
   C20        1.0     0.856769     0.277483     0.053338    Uiso  ? C
   C21        1.0     0.055799     0.387849     0.045426    Uiso  ? C
   C22        1.0     0.154691     0.443910     0.044605    Uiso  ? C
   C23        1.0     0.154114     0.555006     0.044191    Uiso  ? C
   C24        1.0     0.055351     0.611096     0.043907    Uiso  ? C
   C25        1.0     0.254282     0.388638     0.047006    Uiso  ? C
   C26        1.0     0.352529     0.445298     0.050703    Uiso  ? C
   C27        1.0     0.350890     0.557183     0.052773    Uiso  ? C
   C28        1.0     0.252467     0.611876     0.047551    Uiso  ? C
   C29        1.0     0.759432     0.446577     0.057247    Uiso  ? C
   C30        1.0     0.857659     0.388610     0.051622    Uiso  ? C
   C31        1.0     0.956635     0.443821     0.046652    Uiso  ? C
   C32        1.0     0.956273     0.555079     0.045500    Uiso  ? C
   C33        1.0     0.856165     0.608458     0.048890    Uiso  ? C
   C34        1.0     0.055810     0.722009     0.044949    Uiso  ? C
   C35        1.0     0.154950     0.778507     0.046799    Uiso  ? C
   C36        1.0     0.156308     0.889249     0.048604    Uiso  ? C
   C37        1.0     0.056056     0.944350     0.048563    Uiso  ? C
   C38        1.0     0.253736     0.722568     0.049117    Uiso  ? C
   C39        1.0     0.353980     0.775687     0.054962    Uiso  ? C
   C40        1.0     0.356587     0.887612     0.055672    Uiso  ? C
   C41        1.0     0.256987     0.944103     0.051731    Uiso  ? C
   C42        1.0     0.450942     0.715361     0.062938    Uiso  ? C
   C43        1.0     0.555180     0.882052     0.065442    Uiso  ? C
   C44        1.0     0.457056     0.942711     0.060063    Uiso  ? C
   C45        1.0     0.757067     0.883826     0.057028    Uiso  ? C
   C46        1.0     0.656046     0.939393     0.062274    Uiso  ? C
   C47        1.0     0.856907     0.721766     0.049366    Uiso  ? C
   C48        1.0     0.956321     0.777072     0.046962    Uiso  ? C
   C49        1.0     0.956259     0.888498     0.048934    Uiso  ? C
   C50        1.0     0.855682     0.942779     0.052504    Uiso  ? C
   C51        1.0     0.452570     0.393661     0.056589    Uiso  ? C
   C52        1.0     0.550417     0.770422     0.071591    Uiso  ? C
   N1         1.0     0.759727     0.554419     0.054867    Uiso  ? N
   N2         1.0     0.760488     0.775722     0.056670    Uiso  ? N
   N3         1.0     0.446895     0.606433     0.062424    Uiso  ? N
   N4         1.0     0.663120     0.393416     0.065544    Uiso  ? N
   Fe1        1.0     0.662967     0.674748     0.088426    Uiso  ? Fe
   Ni1        1.0     0.554027     0.493587     0.078200    Uiso  ? Ni
   O1         1.0     0.612713     0.583128     0.153709    Uiso  ? O
   H1         1.0     0.550745     0.610659     0.178356    Uiso  ? H
