
#======================================================================
# CRYSTAL DATA
#----------------------------------------------------------------------
data_VESTA_phase_1

_chemical_name_common                  'CONTCAR\(2)\(4)                       '
_cell_length_a                         12.331300
_cell_length_b                         12.829200
_cell_length_c                         19.994400
_cell_angle_alpha                      89.996696
_cell_angle_beta                       89.998299
_cell_angle_gamma                      89.999496
_cell_volume                           3163.128245
_space_group_name_H-M_alt              'P 1'
_space_group_IT_number                 1

loop_
_space_group_symop_operation_xyz
   'x, y, z'

loop_
   _atom_site_label
   _atom_site_occupancy
   _atom_site_fract_x
   _atom_site_fract_y
   _atom_site_fract_z
   _atom_site_adp_type
   _atom_site_U_iso_or_equiv
   _atom_site_type_symbol
   C1         1.0     0.056363     0.054750     0.050817    Uiso  ? C
   C2         1.0     0.156956     0.109950     0.050545    Uiso  ? C
   C3         1.0     0.156755     0.220792     0.049165    Uiso  ? C
   C4         1.0     0.056307     0.276114     0.048455    Uiso  ? C
   C5         1.0     0.257709     0.054865     0.052417    Uiso  ? C
   C6         1.0     0.358077     0.110770     0.055523    Uiso  ? C
   C7         1.0     0.357832     0.222961     0.054498    Uiso  ? C
   C8         1.0     0.256709     0.276741     0.049824    Uiso  ? C
   C9         1.0     0.458191     0.054389     0.059755    Uiso  ? C
   C10        1.0     0.558176     0.112216     0.062970    Uiso  ? C
   C11        1.0     0.558467     0.226048     0.063402    Uiso  ? C
   C12        1.0     0.457400     0.282116     0.058900    Uiso  ? C
   C13        1.0     0.656766     0.052264     0.063438    Uiso  ? C
   C14        1.0     0.755635     0.110287     0.060233    Uiso  ? C
   C15        1.0     0.756285     0.223098     0.060260    Uiso  ? C
   C16        1.0     0.659074     0.283943     0.064507    Uiso  ? C
   C17        1.0     0.855629     0.054268     0.056210    Uiso  ? C
   C18        1.0     0.956053     0.109647     0.052772    Uiso  ? C
   C19        1.0     0.956428     0.220923     0.051880    Uiso  ? C
   C20        1.0     0.856883     0.277166     0.055267    Uiso  ? C
   C21        1.0     0.055868     0.387215     0.046025    Uiso  ? C
   C22        1.0     0.154721     0.443198     0.044581    Uiso  ? C
   C23        1.0     0.154056     0.554300     0.043595    Uiso  ? C
   C24        1.0     0.055438     0.610598     0.043711    Uiso  ? C
   C25        1.0     0.254354     0.387845     0.047321    Uiso  ? C
   C26        1.0     0.352404     0.444458     0.050582    Uiso  ? C
   C27        1.0     0.350706     0.556368     0.051029    Uiso  ? C
   C28        1.0     0.252409     0.611230     0.046241    Uiso  ? C
   C29        1.0     0.759666     0.446604     0.058773    Uiso  ? C
   C30        1.0     0.857830     0.388270     0.053295    Uiso  ? C
   C31        1.0     0.956818     0.443329     0.047573    Uiso  ? C
   C32        1.0     0.956523     0.554623     0.046212    Uiso  ? C
   C33        1.0     0.856663     0.608268     0.050369    Uiso  ? C
   C34        1.0     0.055940     0.721563     0.044709    Uiso  ? C
   C35        1.0     0.155083     0.777966     0.046045    Uiso  ? C
   C36        1.0     0.156551     0.888640     0.048625    Uiso  ? C
   C37        1.0     0.056388     0.943830     0.049715    Uiso  ? C
   C38        1.0     0.253836     0.721917     0.047781    Uiso  ? C
   C39        1.0     0.354095     0.774852     0.053764    Uiso  ? C
   C40        1.0     0.356956     0.886750     0.055227    Uiso  ? C
   C41        1.0     0.257354     0.943338     0.051766    Uiso  ? C
   C42        1.0     0.450912     0.714143     0.060698    Uiso  ? C
   C43        1.0     0.555808     0.880477     0.065872    Uiso  ? C
   C44        1.0     0.457571     0.941531     0.060210    Uiso  ? C
   C45        1.0     0.757953     0.883359     0.061372    Uiso  ? C
   C46        1.0     0.656546     0.938481     0.064998    Uiso  ? C
   C47        1.0     0.857411     0.721611     0.052253    Uiso  ? C
   C48        1.0     0.956643     0.776710     0.048211    Uiso  ? C
   C49        1.0     0.956653     0.888134     0.050967    Uiso  ? C
   C50        1.0     0.856264     0.942476     0.055760    Uiso  ? C
   C51        1.0     0.452560     0.393035     0.057624    Uiso  ? C
   C52        1.0     0.550415     0.768449     0.070123    Uiso  ? C
   N1         1.0     0.760500     0.554317     0.055785    Uiso  ? N
   N2         1.0     0.761844     0.775337     0.062489    Uiso  ? N
   N3         1.0     0.446663     0.605830     0.059044    Uiso  ? N
   N4         1.0     0.663117     0.393766     0.066852    Uiso  ? N
   Fe1        1.0     0.661370     0.672446     0.093461    Uiso  ? Fe
   Ni1        1.0     0.553358     0.494811     0.079008    Uiso  ? Ni
   O1         1.0     0.604729     0.584615     0.146284    Uiso  ? O
