
#======================================================================
# CRYSTAL DATA
#----------------------------------------------------------------------
data_VESTA_phase_1

_chemical_name_common                  'CONTCAR\(2)\(4)                       '
_cell_length_a                         12.331300
_cell_length_b                         12.829200
_cell_length_c                         19.994400
_cell_angle_alpha                      89.996696
_cell_angle_beta                       89.998299
_cell_angle_gamma                      89.999496
_cell_volume                           3163.128245
_space_group_name_H-M_alt              'P 1'
_space_group_IT_number                 1

loop_
_space_group_symop_operation_xyz
   'x, y, z'

loop_
   _atom_site_label
   _atom_site_occupancy
   _atom_site_fract_x
   _atom_site_fract_y
   _atom_site_fract_z
   _atom_site_adp_type
   _atom_site_U_iso_or_equiv
   _atom_site_type_symbol
   C1         1.0     0.056707     0.054016     0.050566    Uiso  ? C
   C2         1.0     0.157305     0.109550     0.050505    Uiso  ? C
   C3         1.0     0.157311     0.220378     0.049427    Uiso  ? C
   C4         1.0     0.056929     0.275475     0.048851    Uiso  ? C
   C5         1.0     0.258096     0.054718     0.052283    Uiso  ? C
   C6         1.0     0.358424     0.110891     0.055034    Uiso  ? C
   C7         1.0     0.358471     0.223087     0.054041    Uiso  ? C
   C8         1.0     0.257306     0.276664     0.050040    Uiso  ? C
   C9         1.0     0.458461     0.054612     0.058830    Uiso  ? C
   C10        1.0     0.558737     0.112007     0.061448    Uiso  ? C
   C11        1.0     0.559393     0.225594     0.061451    Uiso  ? C
   C12        1.0     0.458318     0.282164     0.057343    Uiso  ? C
   C13        1.0     0.657282     0.051820     0.061804    Uiso  ? C
   C14        1.0     0.756172     0.109369     0.058870    Uiso  ? C
   C15        1.0     0.757007     0.222177     0.059045    Uiso  ? C
   C16        1.0     0.659902     0.282743     0.062868    Uiso  ? C
   C17        1.0     0.855844     0.052911     0.055232    Uiso  ? C
   C18        1.0     0.956369     0.108602     0.052302    Uiso  ? C
   C19        1.0     0.956984     0.220009     0.051596    Uiso  ? C
   C20        1.0     0.857624     0.276269     0.054446    Uiso  ? C
   C21        1.0     0.056710     0.386711     0.047044    Uiso  ? C
   C22        1.0     0.155575     0.442905     0.045932    Uiso  ? C
   C23        1.0     0.155011     0.553841     0.045122    Uiso  ? C
   C24        1.0     0.056383     0.610016     0.045149    Uiso  ? C
   C25        1.0     0.255161     0.387706     0.048039    Uiso  ? C
   C26        1.0     0.353495     0.444396     0.050545    Uiso  ? C
   C27        1.0     0.352188     0.556240     0.051305    Uiso  ? C
   C28        1.0     0.253692     0.610862     0.047317    Uiso  ? C
   C29        1.0     0.760996     0.445358     0.058667    Uiso  ? C
   C30        1.0     0.858886     0.387367     0.052831    Uiso  ? C
   C31        1.0     0.957819     0.442665     0.048308    Uiso  ? C
   C32        1.0     0.957163     0.553983     0.047305    Uiso  ? C
   C33        1.0     0.857677     0.607623     0.051442    Uiso  ? C
   C34        1.0     0.056448     0.720793     0.045964    Uiso  ? C
   C35        1.0     0.155549     0.777433     0.046976    Uiso  ? C
   C36        1.0     0.156880     0.888088     0.048863    Uiso  ? C
   C37        1.0     0.056536     0.943032     0.049577    Uiso  ? C
   C38        1.0     0.254448     0.721580     0.048309    Uiso  ? C
   C39        1.0     0.354609     0.774987     0.053190    Uiso  ? C
   C40        1.0     0.357180     0.886858     0.054802    Uiso  ? C
   C41        1.0     0.257608     0.943176     0.051678    Uiso  ? C
   C42        1.0     0.451465     0.714837     0.060229    Uiso  ? C
   C43        1.0     0.555752     0.881591     0.064916    Uiso  ? C
   C44        1.0     0.457622     0.942007     0.059557    Uiso  ? C
   C45        1.0     0.757346     0.881435     0.059086    Uiso  ? C
   C46        1.0     0.656787     0.938103     0.063149    Uiso  ? C
   C47        1.0     0.857521     0.720117     0.051762    Uiso  ? C
   C48        1.0     0.956766     0.775669     0.048603    Uiso  ? C
   C49        1.0     0.956786     0.887015     0.050568    Uiso  ? C
   C50        1.0     0.855957     0.940904     0.054647    Uiso  ? C
   C51        1.0     0.453538     0.392819     0.055573    Uiso  ? C
   C52        1.0     0.550786     0.770161     0.070295    Uiso  ? C
   N1         1.0     0.760733     0.553511     0.058471    Uiso  ? N
   N2         1.0     0.760162     0.772826     0.058645    Uiso  ? N
   N3         1.0     0.448981     0.606118     0.058545    Uiso  ? N
   N4         1.0     0.664506     0.392773     0.065648    Uiso  ? N
   Fe1        1.0     0.655868     0.668202     0.084014    Uiso  ? Fe
   Ni1        1.0     0.558320     0.495433     0.069093    Uiso  ? Ni
   H1         1.0     0.609011     0.661094     0.155272    Uiso  ? H
   H2         1.0     0.596038     0.587120     0.135234    Uiso  ? H
