
#======================================================================
# CRYSTAL DATA
#----------------------------------------------------------------------
data_VESTA_phase_1

_chemical_name_common                  'CONTCAR\(2)\(4)                       '
_cell_length_a                         12.331300
_cell_length_b                         12.829200
_cell_length_c                         19.994400
_cell_angle_alpha                      89.996696
_cell_angle_beta                       89.998299
_cell_angle_gamma                      89.999496
_cell_volume                           3163.128245
_space_group_name_H-M_alt              'P 1'
_space_group_IT_number                 1

loop_
_space_group_symop_operation_xyz
   'x, y, z'

loop_
   _atom_site_label
   _atom_site_occupancy
   _atom_site_fract_x
   _atom_site_fract_y
   _atom_site_fract_z
   _atom_site_adp_type
   _atom_site_U_iso_or_equiv
   _atom_site_type_symbol
   C1         1.0     0.055422     0.052630     0.046260    Uiso  ? C
   C2         1.0     0.155969     0.107862     0.045858    Uiso  ? C
   C3         1.0     0.155782     0.218871     0.044777    Uiso  ? C
   C4         1.0     0.055425     0.274187     0.045351    Uiso  ? C
   C5         1.0     0.256789     0.052744     0.047405    Uiso  ? C
   C6         1.0     0.357228     0.108791     0.050725    Uiso  ? C
   C7         1.0     0.357129     0.221066     0.049117    Uiso  ? C
   C8         1.0     0.255848     0.274863     0.044430    Uiso  ? C
   C9         1.0     0.457138     0.052512     0.055896    Uiso  ? C
   C10        1.0     0.557024     0.110244     0.060234    Uiso  ? C
   C11        1.0     0.557465     0.223636     0.060287    Uiso  ? C
   C12        1.0     0.456879     0.279941     0.053355    Uiso  ? C
   C13        1.0     0.655797     0.050184     0.061655    Uiso  ? C
   C14        1.0     0.754908     0.108057     0.058350    Uiso  ? C
   C15        1.0     0.755741     0.220679     0.059255    Uiso  ? C
   C16        1.0     0.658270     0.281350     0.063563    Uiso  ? C
   C17        1.0     0.854775     0.052375     0.053083    Uiso  ? C
   C18        1.0     0.955171     0.107686     0.049324    Uiso  ? C
   C19        1.0     0.955587     0.218872     0.049420    Uiso  ? C
   C20        1.0     0.856081     0.274885     0.054235    Uiso  ? C
   C21        1.0     0.054777     0.385422     0.043206    Uiso  ? C
   C22        1.0     0.153628     0.441275     0.040137    Uiso  ? C
   C23        1.0     0.152632     0.552458     0.038693    Uiso  ? C
   C24        1.0     0.053584     0.608423     0.039544    Uiso  ? C
   C25        1.0     0.253584     0.385879     0.041560    Uiso  ? C
   C26        1.0     0.352058     0.442513     0.043558    Uiso  ? C
   C27        1.0     0.350291     0.554609     0.045055    Uiso  ? C
   C28        1.0     0.251438     0.609283     0.040521    Uiso  ? C
   C29        1.0     0.758868     0.444159     0.060718    Uiso  ? C
   C30        1.0     0.856737     0.386119     0.053367    Uiso  ? C
   C31        1.0     0.955419     0.441496     0.046327    Uiso  ? C
   C32        1.0     0.954175     0.552655     0.044218    Uiso  ? C
   C33        1.0     0.853564     0.605852     0.050617    Uiso  ? C
   C34        1.0     0.054479     0.719435     0.039674    Uiso  ? C
   C35        1.0     0.153920     0.775724     0.040423    Uiso  ? C
   C36        1.0     0.155458     0.886507     0.043070    Uiso  ? C
   C37        1.0     0.055274     0.941642     0.044450    Uiso  ? C
   C38        1.0     0.253169     0.719845     0.042171    Uiso  ? C
   C39        1.0     0.353783     0.772768     0.048920    Uiso  ? C
   C40        1.0     0.356111     0.884672     0.050661    Uiso  ? C
   C41        1.0     0.256381     0.941238     0.046556    Uiso  ? C
   C42        1.0     0.450938     0.712371     0.057802    Uiso  ? C
   C43        1.0     0.554372     0.878802     0.064636    Uiso  ? C
   C44        1.0     0.456518     0.939556     0.056826    Uiso  ? C
   C45        1.0     0.757123     0.882107     0.058426    Uiso  ? C
   C46        1.0     0.655463     0.937016     0.063631    Uiso  ? C
   C47        1.0     0.855180     0.719868     0.049598    Uiso  ? C
   C48        1.0     0.954863     0.774570     0.043391    Uiso  ? C
   C49        1.0     0.955303     0.885888     0.045827    Uiso  ? C
   C50        1.0     0.855204     0.940678     0.051591    Uiso  ? C
   C51        1.0     0.452296     0.390975     0.050129    Uiso  ? C
   C52        1.0     0.549879     0.766875     0.070975    Uiso  ? C
   N1         1.0     0.758288     0.551940     0.060283    Uiso  ? N
   N2         1.0     0.761151     0.774647     0.059691    Uiso  ? N
   N3         1.0     0.446299     0.603548     0.055017    Uiso  ? N
   N4         1.0     0.662001     0.390235     0.067613    Uiso  ? N
   Fe1        1.0     0.666787     0.684090     0.106689    Uiso  ? Fe
   Ni1        1.0     0.551749     0.490452     0.074731    Uiso  ? Ni
   O1         1.0     0.591554     0.577871     0.153650    Uiso  ? O
   O2         1.0     0.750569     0.714036     0.181770    Uiso  ? O
   H1         1.0     0.727636     0.666219     0.217004    Uiso  ? H
   H2         1.0     0.523458     0.602120     0.172916    Uiso  ? H
