
#======================================================================
# CRYSTAL DATA
#----------------------------------------------------------------------
data_VESTA_phase_1

_chemical_name_common                  'CONTCAR\(2)\(4)                       '
_cell_length_a                         12.331300
_cell_length_b                         12.829200
_cell_length_c                         19.994400
_cell_angle_alpha                      89.996696
_cell_angle_beta                       89.998299
_cell_angle_gamma                      89.999496
_cell_volume                           3163.128245
_space_group_name_H-M_alt              'P 1'
_space_group_IT_number                 1

loop_
_space_group_symop_operation_xyz
   'x, y, z'

loop_
   _atom_site_label
   _atom_site_occupancy
   _atom_site_fract_x
   _atom_site_fract_y
   _atom_site_fract_z
   _atom_site_adp_type
   _atom_site_U_iso_or_equiv
   _atom_site_type_symbol
   C1         1.0     0.056075     0.054644     0.049597    Uiso  ? C
   C2         1.0     0.156593     0.110309     0.049450    Uiso  ? C
   C3         1.0     0.156881     0.221230     0.048627    Uiso  ? C
   C4         1.0     0.056559     0.276098     0.048104    Uiso  ? C
   C5         1.0     0.257196     0.055526     0.050834    Uiso  ? C
   C6         1.0     0.357614     0.111630     0.053132    Uiso  ? C
   C7         1.0     0.357903     0.223615     0.052556    Uiso  ? C
   C8         1.0     0.256930     0.277533     0.049333    Uiso  ? C
   C9         1.0     0.457537     0.055525     0.056284    Uiso  ? C
   C10        1.0     0.558058     0.112267     0.058674    Uiso  ? C
   C11        1.0     0.558828     0.225602     0.059248    Uiso  ? C
   C12        1.0     0.458008     0.282104     0.055944    Uiso  ? C
   C13        1.0     0.656600     0.052383     0.058995    Uiso  ? C
   C14        1.0     0.755680     0.109676     0.056482    Uiso  ? C
   C15        1.0     0.756795     0.222276     0.056533    Uiso  ? C
   C16        1.0     0.659609     0.282595     0.060410    Uiso  ? C
   C17        1.0     0.855262     0.053330     0.053566    Uiso  ? C
   C18        1.0     0.955760     0.109147     0.051007    Uiso  ? C
   C19        1.0     0.956595     0.220534     0.050322    Uiso  ? C
   C20        1.0     0.857214     0.276612     0.052666    Uiso  ? C
   C21        1.0     0.056455     0.387251     0.046524    Uiso  ? C
   C22        1.0     0.155375     0.443536     0.046178    Uiso  ? C
   C23        1.0     0.154825     0.554600     0.045604    Uiso  ? C
   C24        1.0     0.055868     0.610465     0.044870    Uiso  ? C
   C25        1.0     0.255154     0.388699     0.048242    Uiso  ? C
   C26        1.0     0.353720     0.445523     0.051360    Uiso  ? C
   C27        1.0     0.352611     0.557528     0.053498    Uiso  ? C
   C28        1.0     0.253317     0.611620     0.048451    Uiso  ? C
   C29        1.0     0.760106     0.445666     0.055892    Uiso  ? C
   C30        1.0     0.858248     0.387714     0.051006    Uiso  ? C
   C31        1.0     0.957334     0.443038     0.047066    Uiso  ? C
   C32        1.0     0.956832     0.554217     0.046046    Uiso  ? C
   C33        1.0     0.856699     0.607329     0.049174    Uiso  ? C
   C34        1.0     0.055563     0.721271     0.045509    Uiso  ? C
   C35        1.0     0.154349     0.778000     0.046850    Uiso  ? C
   C36        1.0     0.155831     0.888826     0.048251    Uiso  ? C
   C37        1.0     0.055628     0.943625     0.048839    Uiso  ? C
   C38        1.0     0.253155     0.722335     0.048972    Uiso  ? C
   C39        1.0     0.352858     0.776264     0.053211    Uiso  ? C
   C40        1.0     0.355928     0.888000     0.053292    Uiso  ? C
   C41        1.0     0.256390     0.944080     0.050470    Uiso  ? C
   C42        1.0     0.449698     0.716816     0.060472    Uiso  ? C
   C43        1.0     0.554465     0.883202     0.061459    Uiso  ? C
   C44        1.0     0.456363     0.943278     0.056897    Uiso  ? C
   C45        1.0     0.756387     0.882124     0.057645    Uiso  ? C
   C46        1.0     0.655992     0.938902     0.060358    Uiso  ? C
   C47        1.0     0.856877     0.720342     0.050455    Uiso  ? C
   C48        1.0     0.955800     0.776047     0.047641    Uiso  ? C
   C49        1.0     0.955945     0.887469     0.049755    Uiso  ? C
   C50        1.0     0.855245     0.941211     0.053427    Uiso  ? C
   C51        1.0     0.453352     0.392890     0.055853    Uiso  ? C
   C52        1.0     0.549063     0.772483     0.066124    Uiso  ? C
   N1         1.0     0.760260     0.553317     0.053953    Uiso  ? N
   N2         1.0     0.759399     0.772883     0.058074    Uiso  ? N
   N3         1.0     0.448481     0.608010     0.062147    Uiso  ? N
   N4         1.0     0.663905     0.391615     0.063475    Uiso  ? N
   Fe1        1.0     0.653979     0.673400     0.081164    Uiso  ? Fe
   Ni1        1.0     0.556933     0.489489     0.081148    Uiso  ? Ni
   O1         1.0     0.609758     0.542242     0.164982    Uiso  ? O
   O2         1.0     0.640616     0.647272     0.167950    Uiso  ? O
