
#======================================================================
# CRYSTAL DATA
#----------------------------------------------------------------------
data_VESTA_phase_1

_chemical_name_common                  'POSCAR                                '
_cell_length_a                         12.331300
_cell_length_b                         12.829200
_cell_length_c                         19.994400
_cell_angle_alpha                      89.996696
_cell_angle_beta                       89.998299
_cell_angle_gamma                      89.999496
_cell_volume                           3163.128245
_space_group_name_H-M_alt              'P 1'
_space_group_IT_number                 1

loop_
_space_group_symop_operation_xyz
   'x, y, z'

loop_
   _atom_site_label
   _atom_site_occupancy
   _atom_site_fract_x
   _atom_site_fract_y
   _atom_site_fract_z
   _atom_site_adp_type
   _atom_site_U_iso_or_equiv
   _atom_site_type_symbol
   C1         1.0     0.055994     0.054332     0.055795    Uiso  ? C
   C2         1.0     0.156458     0.110456     0.055823    Uiso  ? C
   C3         1.0     0.157132     0.221311     0.055805    Uiso  ? C
   C4         1.0     0.056964     0.275983     0.055770    Uiso  ? C
   C5         1.0     0.257060     0.056059     0.055836    Uiso  ? C
   C6         1.0     0.357426     0.112432     0.055786    Uiso  ? C
   C7         1.0     0.358158     0.224328     0.055744    Uiso  ? C
   C8         1.0     0.257204     0.277987     0.055788    Uiso  ? C
   C9         1.0     0.457413     0.056410     0.055749    Uiso  ? C
   C10        1.0     0.558246     0.112738     0.055675    Uiso  ? C
   C11        1.0     0.559436     0.225814     0.055635    Uiso  ? C
   C12        1.0     0.458614     0.283001     0.055665    Uiso  ? C
   C13        1.0     0.656782     0.052509     0.055655    Uiso  ? C
   C14        1.0     0.755876     0.109509     0.055670    Uiso  ? C
   C15        1.0     0.757216     0.221921     0.055658    Uiso  ? C
   C16        1.0     0.659911     0.282175     0.055615    Uiso  ? C
   C17        1.0     0.855131     0.052424     0.055694    Uiso  ? C
   C18        1.0     0.955725     0.108470     0.055735    Uiso  ? C
   C19        1.0     0.957009     0.219998     0.055726    Uiso  ? C
   C20        1.0     0.857866     0.276131     0.055678    Uiso  ? C
   C21        1.0     0.057326     0.387237     0.055771    Uiso  ? C
   C22        1.0     0.156049     0.443863     0.055805    Uiso  ? C
   C23        1.0     0.155604     0.554642     0.055818    Uiso  ? C
   C24        1.0     0.056341     0.610307     0.055793    Uiso  ? C
   C25        1.0     0.255747     0.389100     0.055787    Uiso  ? C
   C26        1.0     0.354479     0.445961     0.055726    Uiso  ? C
   C27        1.0     0.354149     0.557826     0.055728    Uiso  ? C
   C28        1.0     0.254413     0.611738     0.055808    Uiso  ? C
   C29        1.0     0.761829     0.444671     0.055609    Uiso  ? C
   C30        1.0     0.859747     0.387172     0.055663    Uiso  ? C
   C31        1.0     0.958524     0.442885     0.055713    Uiso  ? C
   C32        1.0     0.957316     0.553966     0.055714    Uiso  ? C
   C33        1.0     0.856843     0.607009     0.055636    Uiso  ? C
   C34        1.0     0.055441     0.720960     0.055803    Uiso  ? C
   C35        1.0     0.154190     0.778023     0.055850    Uiso  ? C
   C36        1.0     0.155602     0.888772     0.055858    Uiso  ? C
   C37        1.0     0.055238     0.943296     0.055809    Uiso  ? C
   C38        1.0     0.253215     0.722573     0.055829    Uiso  ? C
   C39        1.0     0.352487     0.777112     0.055788    Uiso  ? C
   C40        1.0     0.355536     0.888818     0.055822    Uiso  ? C
   C41        1.0     0.256034     0.944562     0.055859    Uiso  ? C
   C42        1.0     0.450252     0.718435     0.055680    Uiso  ? C
   C43        1.0     0.554077     0.885207     0.055657    Uiso  ? C
   C44        1.0     0.455919     0.944594     0.055757    Uiso  ? C
   C45        1.0     0.755266     0.880448     0.055638    Uiso  ? C
   C46        1.0     0.655764     0.939213     0.055634    Uiso  ? C
   C47        1.0     0.856294     0.719113     0.055651    Uiso  ? C
   C48        1.0     0.955403     0.775292     0.055732    Uiso  ? C
   C49        1.0     0.955607     0.886754     0.055745    Uiso  ? C
   C50        1.0     0.854446     0.940100     0.055685    Uiso  ? C
   C51        1.0     0.453908     0.393264     0.055649    Uiso  ? C
   C52        1.0     0.548902     0.775108     0.055613    Uiso  ? C
   N1         1.0     0.759534     0.552425     0.055576    Uiso  ? N
   N2         1.0     0.757627     0.770650     0.055613    Uiso  ? N
   N3         1.0     0.451726     0.609266     0.055646    Uiso  ? N
   N4         1.0     0.664908     0.391500     0.055599    Uiso  ? N
   Fe1        1.0     0.643042     0.667760     0.055572    Uiso  ? Fe
   Ni1        1.0     0.562945     0.495018     0.055608    Uiso  ? Ni
