
#======================================================================
# CRYSTAL DATA
#----------------------------------------------------------------------
data_VESTA_phase_1

_chemical_name_common                  'CONTCAR                               '
_cell_length_a                         12.331300
_cell_length_b                         12.829200
_cell_length_c                         19.994400
_cell_angle_alpha                      89.996696
_cell_angle_beta                       89.998299
_cell_angle_gamma                      89.999496
_cell_volume                           3163.128245
_space_group_name_H-M_alt              'P 1'
_space_group_IT_number                 1

loop_
_space_group_symop_operation_xyz
   'x, y, z'

loop_
   _atom_site_label
   _atom_site_occupancy
   _atom_site_fract_x
   _atom_site_fract_y
   _atom_site_fract_z
   _atom_site_adp_type
   _atom_site_U_iso_or_equiv
   _atom_site_type_symbol
   C1         1.0     0.056511     0.055681     0.050189    Uiso  ? C
   C2         1.0     0.156748     0.110731     0.049828    Uiso  ? C
   C3         1.0     0.156817     0.221689     0.048691    Uiso  ? C
   C4         1.0     0.056462     0.276543     0.047849    Uiso  ? C
   C5         1.0     0.257008     0.055399     0.051538    Uiso  ? C
   C6         1.0     0.357411     0.110789     0.055155    Uiso  ? C
   C7         1.0     0.357690     0.222914     0.054807    Uiso  ? C
   C8         1.0     0.257014     0.277292     0.049797    Uiso  ? C
   C9         1.0     0.456715     0.053939     0.059414    Uiso  ? C
   C10        1.0     0.556800     0.110318     0.063347    Uiso  ? C
   C11        1.0     0.556815     0.222428     0.064388    Uiso  ? C
   C12        1.0     0.457264     0.280600     0.059738    Uiso  ? C
   C13        1.0     0.656608     0.051212     0.064068    Uiso  ? C
   C14        1.0     0.755894     0.109389     0.060554    Uiso  ? C
   C15        1.0     0.756333     0.221752     0.060695    Uiso  ? C
   C16        1.0     0.657232     0.280128     0.066446    Uiso  ? C
   C17        1.0     0.855766     0.054216     0.056326    Uiso  ? C
   C18        1.0     0.956004     0.110074     0.052299    Uiso  ? C
   C19        1.0     0.956308     0.221085     0.051108    Uiso  ? C
   C20        1.0     0.856469     0.276720     0.054697    Uiso  ? C
   C21        1.0     0.056648     0.387780     0.045898    Uiso  ? C
   C22        1.0     0.155764     0.443219     0.044571    Uiso  ? C
   C23        1.0     0.155084     0.554599     0.043492    Uiso  ? C
   C24        1.0     0.056230     0.610479     0.044216    Uiso  ? C
   C25        1.0     0.255979     0.388293     0.047393    Uiso  ? C
   C26        1.0     0.355134     0.444382     0.050805    Uiso  ? C
   C27        1.0     0.352934     0.557365     0.050339    Uiso  ? C
   C28        1.0     0.253313     0.611450     0.045360    Uiso  ? C
   C29        1.0     0.759536     0.445542     0.062169    Uiso  ? C
   C30        1.0     0.857787     0.388153     0.053314    Uiso  ? C
   C31        1.0     0.956908     0.443704     0.047859    Uiso  ? C
   C32        1.0     0.957159     0.554922     0.047461    Uiso  ? C
   C33        1.0     0.857898     0.610890     0.053817    Uiso  ? C
   C34        1.0     0.056400     0.721903     0.045185    Uiso  ? C
   C35        1.0     0.154769     0.778123     0.045295    Uiso  ? C
   C36        1.0     0.156095     0.889311     0.047539    Uiso  ? C
   C37        1.0     0.056527     0.944895     0.049169    Uiso  ? C
   C38        1.0     0.253580     0.722031     0.046113    Uiso  ? C
   C39        1.0     0.352954     0.775994     0.051300    Uiso  ? C
   C40        1.0     0.355847     0.887458     0.053478    Uiso  ? C
   C41        1.0     0.256430     0.944145     0.050298    Uiso  ? C
   C42        1.0     0.449502     0.716807     0.059354    Uiso  ? C
   C43        1.0     0.554303     0.881257     0.066514    Uiso  ? C
   C44        1.0     0.456159     0.941653     0.059579    Uiso  ? C
   C45        1.0     0.758070     0.883379     0.062552    Uiso  ? C
   C46        1.0     0.656363     0.938410     0.065972    Uiso  ? C
   C47        1.0     0.859201     0.724150     0.054533    Uiso  ? C
   C48        1.0     0.957594     0.778498     0.049163    Uiso  ? C
   C49        1.0     0.957041     0.889250     0.051268    Uiso  ? C
   C50        1.0     0.856255     0.942476     0.056533    Uiso  ? C
   C51        1.0     0.455508     0.392736     0.058341    Uiso  ? C
   C52        1.0     0.660035     0.390553     0.070790    Uiso  ? C
   C53        1.0     0.759930     0.557195     0.063657    Uiso  ? C
   C54        1.0     0.548030     0.770549     0.071530    Uiso  ? C
   N1         1.0     0.447489     0.608416     0.057814    Uiso  ? N
   N2         1.0     0.763066     0.775098     0.063533    Uiso  ? N
   Fe1        1.0     0.657922     0.667986     0.090215    Uiso  ? Fe
   Ni1        1.0     0.559051     0.495655     0.075230    Uiso  ? Ni
   H1         1.0     0.603347     0.576344     0.136106    Uiso  ? H
