
#======================================================================
# CRYSTAL DATA
#----------------------------------------------------------------------
data_VESTA_phase_1

_chemical_name_common                  'CONTCAR                               '
_cell_length_a                         12.331300
_cell_length_b                         12.829200
_cell_length_c                         19.994400
_cell_angle_alpha                      89.996696
_cell_angle_beta                       89.998299
_cell_angle_gamma                      89.999496
_cell_volume                           3163.128245
_space_group_name_H-M_alt              'P 1'
_space_group_IT_number                 1

loop_
_space_group_symop_operation_xyz
   'x, y, z'

loop_
   _atom_site_label
   _atom_site_occupancy
   _atom_site_fract_x
   _atom_site_fract_y
   _atom_site_fract_z
   _atom_site_adp_type
   _atom_site_U_iso_or_equiv
   _atom_site_type_symbol
   C1         1.0     0.056561     0.055989     0.048789    Uiso  ? C
   C2         1.0     0.156831     0.111059     0.048575    Uiso  ? C
   C3         1.0     0.156954     0.222077     0.047633    Uiso  ? C
   C4         1.0     0.056564     0.276977     0.047063    Uiso  ? C
   C5         1.0     0.257039     0.055671     0.050173    Uiso  ? C
   C6         1.0     0.357450     0.111118     0.053474    Uiso  ? C
   C7         1.0     0.357764     0.223142     0.053201    Uiso  ? C
   C8         1.0     0.257120     0.277678     0.048665    Uiso  ? C
   C9         1.0     0.456830     0.054350     0.057521    Uiso  ? C
   C10        1.0     0.556984     0.110455     0.061308    Uiso  ? C
   C11        1.0     0.557015     0.222389     0.062617    Uiso  ? C
   C12        1.0     0.457501     0.280395     0.058203    Uiso  ? C
   C13        1.0     0.656874     0.051728     0.061920    Uiso  ? C
   C14        1.0     0.756142     0.109721     0.058844    Uiso  ? C
   C15        1.0     0.756542     0.221952     0.059438    Uiso  ? C
   C16        1.0     0.657352     0.279837     0.064886    Uiso  ? C
   C17        1.0     0.855908     0.054473     0.054528    Uiso  ? C
   C18        1.0     0.956072     0.110472     0.050974    Uiso  ? C
   C19        1.0     0.956327     0.221611     0.050299    Uiso  ? C
   C20        1.0     0.856515     0.277347     0.054140    Uiso  ? C
   C21        1.0     0.056711     0.388135     0.045033    Uiso  ? C
   C22        1.0     0.155988     0.443587     0.043870    Uiso  ? C
   C23        1.0     0.155420     0.554881     0.042755    Uiso  ? C
   C24        1.0     0.056445     0.610724     0.042490    Uiso  ? C
   C25        1.0     0.256303     0.388743     0.046740    Uiso  ? C
   C26        1.0     0.355566     0.444853     0.050349    Uiso  ? C
   C27        1.0     0.353499     0.557683     0.050515    Uiso  ? C
   C28        1.0     0.253773     0.611661     0.045231    Uiso  ? C
   C29        1.0     0.758755     0.446707     0.061060    Uiso  ? C
   C30        1.0     0.857496     0.388908     0.052961    Uiso  ? C
   C31        1.0     0.956810     0.444110     0.046741    Uiso  ? C
   C32        1.0     0.957188     0.555226     0.045157    Uiso  ? C
   C33        1.0     0.857727     0.610976     0.050672    Uiso  ? C
   C34        1.0     0.056564     0.722034     0.043334    Uiso  ? C
   C35        1.0     0.155083     0.778289     0.044250    Uiso  ? C
   C36        1.0     0.156237     0.889503     0.046403    Uiso  ? C
   C37        1.0     0.056556     0.945158     0.047586    Uiso  ? C
   C38        1.0     0.254004     0.722286     0.045894    Uiso  ? C
   C39        1.0     0.353457     0.776345     0.051155    Uiso  ? C
   C40        1.0     0.356002     0.887753     0.052522    Uiso  ? C
   C41        1.0     0.256479     0.944361     0.049217    Uiso  ? C
   C42        1.0     0.450391     0.717198     0.059324    Uiso  ? C
   C43        1.0     0.554533     0.882411     0.064545    Uiso  ? C
   C44        1.0     0.456210     0.942235     0.057877    Uiso  ? C
   C45        1.0     0.757901     0.883794     0.059861    Uiso  ? C
   C46        1.0     0.656633     0.939087     0.063609    Uiso  ? C
   C47        1.0     0.859012     0.724071     0.051362    Uiso  ? C
   C48        1.0     0.957497     0.778618     0.046718    Uiso  ? C
   C49        1.0     0.957054     0.889449     0.049110    Uiso  ? C
   C50        1.0     0.856252     0.942702     0.054113    Uiso  ? C
   C51        1.0     0.455909     0.392327     0.057595    Uiso  ? C
   C52        1.0     0.659668     0.390085     0.069450    Uiso  ? C
   C53        1.0     0.759463     0.558380     0.061073    Uiso  ? C
   C54        1.0     0.548900     0.772146     0.070208    Uiso  ? C
   N1         1.0     0.448294     0.608777     0.058514    Uiso  ? N
   N2         1.0     0.762623     0.775342     0.060522    Uiso  ? N
   Fe1        1.0     0.659412     0.673307     0.091557    Uiso  ? Fe
   Ni1        1.0     0.557727     0.491807     0.078691    Uiso  ? Ni
   O1         1.0     0.604394     0.584952     0.157669    Uiso  ? O
   H1         1.0     0.538690     0.613836     0.177686    Uiso  ? H
