
#======================================================================
# CRYSTAL DATA
#----------------------------------------------------------------------
data_VESTA_phase_1

_chemical_name_common                  'CONTCAR                               '
_cell_length_a                         12.331300
_cell_length_b                         12.829200
_cell_length_c                         19.994400
_cell_angle_alpha                      89.996696
_cell_angle_beta                       89.998299
_cell_angle_gamma                      89.999496
_cell_volume                           3163.128245
_space_group_name_H-M_alt              'P 1'
_space_group_IT_number                 1

loop_
_space_group_symop_operation_xyz
   'x, y, z'

loop_
   _atom_site_label
   _atom_site_occupancy
   _atom_site_fract_x
   _atom_site_fract_y
   _atom_site_fract_z
   _atom_site_adp_type
   _atom_site_U_iso_or_equiv
   _atom_site_type_symbol
   C1         1.0     0.056692     0.055941     0.051467    Uiso  ? C
   C2         1.0     0.156991     0.110480     0.050685    Uiso  ? C
   C3         1.0     0.156247     0.221480     0.049698    Uiso  ? C
   C4         1.0     0.055736     0.276962     0.049686    Uiso  ? C
   C5         1.0     0.257443     0.054527     0.051474    Uiso  ? C
   C6         1.0     0.357866     0.109538     0.054145    Uiso  ? C
   C7         1.0     0.357313     0.221763     0.053639    Uiso  ? C
   C8         1.0     0.256436     0.276590     0.049749    Uiso  ? C
   C9         1.0     0.457645     0.052439     0.057689    Uiso  ? C
   C10        1.0     0.557065     0.109582     0.061684    Uiso  ? C
   C11        1.0     0.556494     0.221773     0.062881    Uiso  ? C
   C12        1.0     0.456703     0.279448     0.057951    Uiso  ? C
   C13        1.0     0.656972     0.051245     0.062948    Uiso  ? C
   C14        1.0     0.755907     0.109764     0.060876    Uiso  ? C
   C15        1.0     0.755635     0.222265     0.061224    Uiso  ? C
   C16        1.0     0.656192     0.279981     0.065598    Uiso  ? C
   C17        1.0     0.856101     0.054947     0.057151    Uiso  ? C
   C18        1.0     0.956069     0.110877     0.053715    Uiso  ? C
   C19        1.0     0.955514     0.222123     0.053020    Uiso  ? C
   C20        1.0     0.855320     0.278168     0.056514    Uiso  ? C
   C21        1.0     0.055307     0.388203     0.047665    Uiso  ? C
   C22        1.0     0.154708     0.443131     0.045609    Uiso  ? C
   C23        1.0     0.154133     0.554382     0.044497    Uiso  ? C
   C24        1.0     0.055411     0.610728     0.045586    Uiso  ? C
   C25        1.0     0.254930     0.387630     0.047283    Uiso  ? C
   C26        1.0     0.354161     0.443382     0.049002    Uiso  ? C
   C27        1.0     0.352189     0.556132     0.047556    Uiso  ? C
   C28        1.0     0.252903     0.610733     0.044957    Uiso  ? C
   C29        1.0     0.755903     0.447988     0.061826    Uiso  ? C
   C30        1.0     0.855624     0.390063     0.055233    Uiso  ? C
   C31        1.0     0.955348     0.444651     0.049666    Uiso  ? C
   C32        1.0     0.955683     0.555836     0.048557    Uiso  ? C
   C33        1.0     0.856395     0.612896     0.053350    Uiso  ? C
   C34        1.0     0.056827     0.722084     0.046211    Uiso  ? C
   C35        1.0     0.155774     0.777808     0.046113    Uiso  ? C
   C36        1.0     0.157005     0.888933     0.048407    Uiso  ? C
   C37        1.0     0.057364     0.945080     0.050455    Uiso  ? C
   C38        1.0     0.254696     0.721307     0.046036    Uiso  ? C
   C39        1.0     0.355162     0.774388     0.049773    Uiso  ? C
   C40        1.0     0.357442     0.885942     0.052102    Uiso  ? C
   C41        1.0     0.257592     0.943135     0.050226    Uiso  ? C
   C42        1.0     0.452604     0.713686     0.054079    Uiso  ? C
   C43        1.0     0.557201     0.879121     0.062194    Uiso  ? C
   C44        1.0     0.457983     0.939721     0.057101    Uiso  ? C
   C45        1.0     0.759357     0.884566     0.063014    Uiso  ? C
   C46        1.0     0.657490     0.938374     0.064160    Uiso  ? C
   C47        1.0     0.859405     0.725446     0.055587    Uiso  ? C
   C48        1.0     0.958231     0.779103     0.050192    Uiso  ? C
   C49        1.0     0.957934     0.889816     0.052562    Uiso  ? C
   C50        1.0     0.857322     0.943450     0.057301    Uiso  ? C
   C51        1.0     0.454488     0.391041     0.055983    Uiso  ? C
   C52        1.0     0.657678     0.390844     0.069428    Uiso  ? C
   C53        1.0     0.757141     0.560614     0.061324    Uiso  ? C
   C54        1.0     0.552561     0.767176     0.063873    Uiso  ? C
   N1         1.0     0.447862     0.606270     0.051944    Uiso  ? N
   N2         1.0     0.763986     0.776998     0.065986    Uiso  ? N
   Fe1        1.0     0.661336     0.671718     0.098372    Uiso  ? Fe
   Ni1        1.0     0.554904     0.493218     0.076447    Uiso  ? Ni
   O1         1.0     0.603327     0.582463     0.147236    Uiso  ? O
