
#======================================================================
# CRYSTAL DATA
#----------------------------------------------------------------------
data_VESTA_phase_1

_chemical_name_common                  'CONTCAR                               '
_cell_length_a                         12.331300
_cell_length_b                         12.829200
_cell_length_c                         19.994400
_cell_angle_alpha                      89.996696
_cell_angle_beta                       89.998299
_cell_angle_gamma                      89.999496
_cell_volume                           3163.128245
_space_group_name_H-M_alt              'P 1'
_space_group_IT_number                 1

loop_
_space_group_symop_operation_xyz
   'x, y, z'

loop_
   _atom_site_label
   _atom_site_occupancy
   _atom_site_fract_x
   _atom_site_fract_y
   _atom_site_fract_z
   _atom_site_adp_type
   _atom_site_U_iso_or_equiv
   _atom_site_type_symbol
   C1         1.0     0.057072     0.053886     0.050420    Uiso  ? C
   C2         1.0     0.157198     0.109244     0.050783    Uiso  ? C
   C3         1.0     0.157513     0.220329     0.050681    Uiso  ? C
   C4         1.0     0.057356     0.275090     0.049949    Uiso  ? C
   C5         1.0     0.257337     0.053970     0.051910    Uiso  ? C
   C6         1.0     0.357787     0.109545     0.054166    Uiso  ? C
   C7         1.0     0.358368     0.221803     0.054442    Uiso  ? C
   C8         1.0     0.257670     0.276207     0.051967    Uiso  ? C
   C9         1.0     0.456925     0.052630     0.056629    Uiso  ? C
   C10        1.0     0.557225     0.108768     0.058761    Uiso  ? C
   C11        1.0     0.557341     0.220229     0.059053    Uiso  ? C
   C12        1.0     0.458278     0.279280     0.057167    Uiso  ? C
   C13        1.0     0.657206     0.050009     0.059013    Uiso  ? C
   C14        1.0     0.756731     0.107445     0.056102    Uiso  ? C
   C15        1.0     0.757375     0.219369     0.056090    Uiso  ? C
   C16        1.0     0.658041     0.276949     0.059568    Uiso  ? C
   C17        1.0     0.856410     0.052328     0.053366    Uiso  ? C
   C18        1.0     0.956734     0.108307     0.051399    Uiso  ? C
   C19        1.0     0.957295     0.219275     0.050986    Uiso  ? C
   C20        1.0     0.857450     0.274751     0.052644    Uiso  ? C
   C21        1.0     0.057549     0.386434     0.049240    Uiso  ? C
   C22        1.0     0.156572     0.442012     0.049463    Uiso  ? C
   C23        1.0     0.155452     0.553208     0.048926    Uiso  ? C
   C24        1.0     0.056006     0.608636     0.048273    Uiso  ? C
   C25        1.0     0.256947     0.387249     0.051302    Uiso  ? C
   C26        1.0     0.356439     0.443410     0.053481    Uiso  ? C
   C27        1.0     0.354618     0.556369     0.053472    Uiso  ? C
   C28        1.0     0.254267     0.609993     0.050362    Uiso  ? C
   C29        1.0     0.759886     0.442647     0.056846    Uiso  ? C
   C30        1.0     0.858808     0.386073     0.051792    Uiso  ? C
   C31        1.0     0.957680     0.442177     0.049404    Uiso  ? C
   C32        1.0     0.956309     0.553232     0.049035    Uiso  ? C
   C33        1.0     0.855157     0.608427     0.051329    Uiso  ? C
   C34        1.0     0.056286     0.720000     0.048267    Uiso  ? C
   C35        1.0     0.154911     0.776282     0.048567    Uiso  ? C
   C36        1.0     0.156294     0.887527     0.049418    Uiso  ? C
   C37        1.0     0.056751     0.942932     0.049677    Uiso  ? C
   C38        1.0     0.254012     0.720512     0.049911    Uiso  ? C
   C39        1.0     0.353546     0.774786     0.053079    Uiso  ? C
   C40        1.0     0.356012     0.886280     0.053787    Uiso  ? C
   C41        1.0     0.256588     0.942692     0.051340    Uiso  ? C
   C42        1.0     0.450769     0.716130     0.059078    Uiso  ? C
   C43        1.0     0.554884     0.881257     0.062900    Uiso  ? C
   C44        1.0     0.456256     0.940694     0.057225    Uiso  ? C
   C45        1.0     0.757692     0.882381     0.057243    Uiso  ? C
   C46        1.0     0.656824     0.937847     0.060994    Uiso  ? C
   C47        1.0     0.857586     0.721962     0.051817    Uiso  ? C
   C48        1.0     0.957032     0.776259     0.049540    Uiso  ? C
   C49        1.0     0.957050     0.887139     0.050415    Uiso  ? C
   C50        1.0     0.856391     0.940764     0.053225    Uiso  ? C
   C51        1.0     0.457149     0.391577     0.056996    Uiso  ? C
   C52        1.0     0.661141     0.386449     0.061769    Uiso  ? C
   C53        1.0     0.755442     0.554699     0.057284    Uiso  ? C
   C54        1.0     0.549353     0.771552     0.069227    Uiso  ? C
   N1         1.0     0.450356     0.607788     0.057705    Uiso  ? N
   N2         1.0     0.761226     0.773923     0.056891    Uiso  ? N
   Fe1        1.0     0.657070     0.672933     0.088377    Uiso  ? Fe
   Ni1        1.0     0.565083     0.492786     0.063270    Uiso  ? Ni
   H1         1.0     0.597715     0.658599     0.158773    Uiso  ? H
   H2         1.0     0.603649     0.591120     0.142755    Uiso  ? H
