
#======================================================================
# CRYSTAL DATA
#----------------------------------------------------------------------
data_VESTA_phase_1

_chemical_name_common                  'CONTCAR                               '
_cell_length_a                         12.331300
_cell_length_b                         12.829200
_cell_length_c                         19.994400
_cell_angle_alpha                      89.996696
_cell_angle_beta                       89.998299
_cell_angle_gamma                      89.999496
_cell_volume                           3163.128245
_space_group_name_H-M_alt              'P 1'
_space_group_IT_number                 1

loop_
_space_group_symop_operation_xyz
   'x, y, z'

loop_
   _atom_site_label
   _atom_site_occupancy
   _atom_site_fract_x
   _atom_site_fract_y
   _atom_site_fract_z
   _atom_site_adp_type
   _atom_site_U_iso_or_equiv
   _atom_site_type_symbol
   C1         1.0     0.055595     0.054433     0.045220    Uiso  ? C
   C2         1.0     0.155974     0.108823     0.044827    Uiso  ? C
   C3         1.0     0.155248     0.219910     0.043998    Uiso  ? C
   C4         1.0     0.054669     0.275487     0.044828    Uiso  ? C
   C5         1.0     0.256410     0.052747     0.046264    Uiso  ? C
   C6         1.0     0.356847     0.107645     0.049826    Uiso  ? C
   C7         1.0     0.356331     0.219754     0.048581    Uiso  ? C
   C8         1.0     0.255548     0.274847     0.043844    Uiso  ? C
   C9         1.0     0.456574     0.050699     0.054961    Uiso  ? C
   C10        1.0     0.556001     0.107715     0.059760    Uiso  ? C
   C11        1.0     0.555445     0.219878     0.060728    Uiso  ? C
   C12        1.0     0.455787     0.277043     0.053657    Uiso  ? C
   C13        1.0     0.656008     0.049527     0.061385    Uiso  ? C
   C14        1.0     0.755062     0.108132     0.058339    Uiso  ? C
   C15        1.0     0.754829     0.220494     0.060105    Uiso  ? C
   C16        1.0     0.655334     0.277939     0.065587    Uiso  ? C
   C17        1.0     0.855166     0.053578     0.052535    Uiso  ? C
   C18        1.0     0.954980     0.109543     0.048582    Uiso  ? C
   C19        1.0     0.954344     0.220840     0.049093    Uiso  ? C
   C20        1.0     0.854200     0.276872     0.054796    Uiso  ? C
   C21        1.0     0.054086     0.386693     0.042812    Uiso  ? C
   C22        1.0     0.153640     0.441497     0.039473    Uiso  ? C
   C23        1.0     0.153240     0.552812     0.037743    Uiso  ? C
   C24        1.0     0.054338     0.609092     0.038451    Uiso  ? C
   C25        1.0     0.254043     0.385975     0.041126    Uiso  ? C
   C26        1.0     0.353457     0.441633     0.043311    Uiso  ? C
   C27        1.0     0.351659     0.554500     0.043555    Uiso  ? C
   C28        1.0     0.252202     0.609072     0.039230    Uiso  ? C
   C29        1.0     0.754884     0.447077     0.065719    Uiso  ? C
   C30        1.0     0.854305     0.389011     0.054933    Uiso  ? C
   C31        1.0     0.954021     0.443150     0.046490    Uiso  ? C
   C32        1.0     0.954604     0.554167     0.043728    Uiso  ? C
   C33        1.0     0.855940     0.611251     0.051501    Uiso  ? C
   C34        1.0     0.055776     0.720482     0.038371    Uiso  ? C
   C35        1.0     0.154871     0.776158     0.038926    Uiso  ? C
   C36        1.0     0.156008     0.887293     0.041619    Uiso  ? C
   C37        1.0     0.056324     0.943554     0.043189    Uiso  ? C
   C38        1.0     0.253916     0.719679     0.040547    Uiso  ? C
   C39        1.0     0.354238     0.772697     0.047017    Uiso  ? C
   C40        1.0     0.356417     0.884205     0.049076    Uiso  ? C
   C41        1.0     0.256653     0.941383     0.045139    Uiso  ? C
   C42        1.0     0.451396     0.712218     0.055096    Uiso  ? C
   C43        1.0     0.555761     0.877549     0.063217    Uiso  ? C
   C44        1.0     0.456971     0.937961     0.055522    Uiso  ? C
   C45        1.0     0.758875     0.883513     0.059429    Uiso  ? C
   C46        1.0     0.656525     0.936831     0.063379    Uiso  ? C
   C47        1.0     0.858826     0.724007     0.050257    Uiso  ? C
   C48        1.0     0.957258     0.777708     0.042402    Uiso  ? C
   C49        1.0     0.956823     0.888319     0.044962    Uiso  ? C
   C50        1.0     0.856400     0.942116     0.051351    Uiso  ? C
   C51        1.0     0.453590     0.388524     0.051046    Uiso  ? C
   C52        1.0     0.656419     0.388310     0.071974    Uiso  ? C
   C53        1.0     0.758301     0.559913     0.066941    Uiso  ? C
   C54        1.0     0.551072     0.765323     0.068945    Uiso  ? C
   N1         1.0     0.446981     0.604478     0.052010    Uiso  ? N
   N2         1.0     0.764485     0.776303     0.062607    Uiso  ? N
   Fe1        1.0     0.668892     0.682467     0.110587    Uiso  ? Fe
   Ni1        1.0     0.550939     0.487191     0.077056    Uiso  ? Ni
   O1         1.0     0.585315     0.575881     0.155766    Uiso  ? O
   O2         1.0     0.751039     0.704721     0.185600    Uiso  ? O
   H1         1.0     0.732472     0.651792     0.218936    Uiso  ? H
   H2         1.0     0.517116     0.604807     0.172163    Uiso  ? H
