
#======================================================================
# CRYSTAL DATA
#----------------------------------------------------------------------
data_VESTA_phase_1

_chemical_name_common                  'CONTCAR                               '
_cell_length_a                         12.331300
_cell_length_b                         12.829200
_cell_length_c                         19.994400
_cell_angle_alpha                      89.996696
_cell_angle_beta                       89.998299
_cell_angle_gamma                      89.999496
_cell_volume                           3163.128245
_space_group_name_H-M_alt              'P 1'
_space_group_IT_number                 1

loop_
_space_group_symop_operation_xyz
   'x, y, z'

loop_
   _atom_site_label
   _atom_site_occupancy
   _atom_site_fract_x
   _atom_site_fract_y
   _atom_site_fract_z
   _atom_site_adp_type
   _atom_site_U_iso_or_equiv
   _atom_site_type_symbol
   C1         1.0     0.057027     0.056551     0.047803    Uiso  ? C
   C2         1.0     0.157266     0.111272     0.047719    Uiso  ? C
   C3         1.0     0.156804     0.222379     0.047354    Uiso  ? C
   C4         1.0     0.056376     0.277721     0.047289    Uiso  ? C
   C5         1.0     0.257536     0.055343     0.049011    Uiso  ? C
   C6         1.0     0.357976     0.110387     0.051302    Uiso  ? C
   C7         1.0     0.357678     0.222475     0.051193    Uiso  ? C
   C8         1.0     0.257036     0.277622     0.048381    Uiso  ? C
   C9         1.0     0.457605     0.053434     0.054447    Uiso  ? C
   C10        1.0     0.557306     0.110097     0.057244    Uiso  ? C
   C11        1.0     0.556891     0.221835     0.058365    Uiso  ? C
   C12        1.0     0.457320     0.279668     0.055049    Uiso  ? C
   C13        1.0     0.657330     0.051988     0.057548    Uiso  ? C
   C14        1.0     0.756459     0.110130     0.054881    Uiso  ? C
   C15        1.0     0.756459     0.222302     0.055508    Uiso  ? C
   C16        1.0     0.656909     0.279451     0.060192    Uiso  ? C
   C17        1.0     0.856535     0.055364     0.051612    Uiso  ? C
   C18        1.0     0.956467     0.111481     0.049162    Uiso  ? C
   C19        1.0     0.956068     0.222722     0.049046    Uiso  ? C
   C20        1.0     0.855828     0.278609     0.051924    Uiso  ? C
   C21        1.0     0.056030     0.388991     0.046857    Uiso  ? C
   C22        1.0     0.155528     0.444047     0.046632    Uiso  ? C
   C23        1.0     0.155112     0.555214     0.046425    Uiso  ? C
   C24        1.0     0.056089     0.611212     0.046482    Uiso  ? C
   C25        1.0     0.255909     0.388792     0.048098    Uiso  ? C
   C26        1.0     0.355364     0.444631     0.051033    Uiso  ? C
   C27        1.0     0.353889     0.557482     0.052525    Uiso  ? C
   C28        1.0     0.254104     0.611531     0.048339    Uiso  ? C
   C29        1.0     0.756299     0.448270     0.059372    Uiso  ? C
   C30        1.0     0.855919     0.390586     0.052113    Uiso  ? C
   C31        1.0     0.955967     0.445259     0.048518    Uiso  ? C
   C32        1.0     0.956158     0.556238     0.048421    Uiso  ? C
   C33        1.0     0.856130     0.612663     0.052481    Uiso  ? C
   C34        1.0     0.057204     0.722534     0.046564    Uiso  ? C
   C35        1.0     0.155962     0.778378     0.046635    Uiso  ? C
   C36        1.0     0.157109     0.889560     0.047183    Uiso  ? C
   C37        1.0     0.057510     0.945612     0.047453    Uiso  ? C
   C38        1.0     0.254902     0.722081     0.048268    Uiso  ? C
   C39        1.0     0.354955     0.775554     0.051504    Uiso  ? C
   C40        1.0     0.357242     0.887045     0.051621    Uiso  ? C
   C41        1.0     0.257533     0.944018     0.048873    Uiso  ? C
   C42        1.0     0.452293     0.715775     0.058269    Uiso  ? C
   C43        1.0     0.556806     0.881142     0.060483    Uiso  ? C
   C44        1.0     0.457736     0.941075     0.055169    Uiso  ? C
   C45        1.0     0.759126     0.885455     0.056386    Uiso  ? C
   C46        1.0     0.657557     0.939516     0.059194    Uiso  ? C
   C47        1.0     0.859515     0.725477     0.051843    Uiso  ? C
   C48        1.0     0.958484     0.779388     0.048265    Uiso  ? C
   C49        1.0     0.958071     0.890142     0.048762    Uiso  ? C
   C50        1.0     0.857404     0.943884     0.051702    Uiso  ? C
   C51        1.0     0.455345     0.391118     0.054950    Uiso  ? C
   C52        1.0     0.658829     0.389196     0.065062    Uiso  ? C
   C53        1.0     0.756087     0.561308     0.061498    Uiso  ? C
   C54        1.0     0.552022     0.770054     0.066230    Uiso  ? C
   N1         1.0     0.449501     0.607995     0.059486    Uiso  ? N
   N2         1.0     0.763346     0.777623     0.057893    Uiso  ? N
   Fe1        1.0     0.665292     0.680550     0.096927    Uiso  ? Fe
   Ni1        1.0     0.557382     0.489709     0.079330    Uiso  ? Ni
   O1         1.0     0.589698     0.520989     0.170571    Uiso  ? O
   O2         1.0     0.622215     0.624243     0.171498    Uiso  ? O
