
#======================================================================
# CRYSTAL DATA
#----------------------------------------------------------------------
data_VESTA_phase_1

_chemical_name_common                  'CONTCAR                               '
_cell_length_a                         12.331300
_cell_length_b                         12.829200
_cell_length_c                         19.994400
_cell_angle_alpha                      89.996696
_cell_angle_beta                       89.998299
_cell_angle_gamma                      89.999496
_cell_volume                           3163.128245
_space_group_name_H-M_alt              'P 1'
_space_group_IT_number                 1

loop_
_space_group_symop_operation_xyz
   'x, y, z'

loop_
   _atom_site_label
   _atom_site_occupancy
   _atom_site_fract_x
   _atom_site_fract_y
   _atom_site_fract_z
   _atom_site_adp_type
   _atom_site_U_iso_or_equiv
   _atom_site_type_symbol
   C1         1.0     0.056329     0.054995     0.055793    Uiso  ? C
   C2         1.0     0.156367     0.111000     0.055804    Uiso  ? C
   C3         1.0     0.157316     0.222016     0.055783    Uiso  ? C
   C4         1.0     0.057237     0.276371     0.055765    Uiso  ? C
   C5         1.0     0.256357     0.056189     0.055814    Uiso  ? C
   C6         1.0     0.356766     0.112081     0.055782    Uiso  ? C
   C7         1.0     0.357956     0.224001     0.055744    Uiso  ? C
   C8         1.0     0.257555     0.278334     0.055767    Uiso  ? C
   C9         1.0     0.455870     0.055500     0.055748    Uiso  ? C
   C10        1.0     0.556908     0.110461     0.055706    Uiso  ? C
   C11        1.0     0.557448     0.221848     0.055697    Uiso  ? C
   C12        1.0     0.458344     0.281107     0.055691    Uiso  ? C
   C13        1.0     0.656742     0.051514     0.055652    Uiso  ? C
   C14        1.0     0.756433     0.108409     0.055672    Uiso  ? C
   C15        1.0     0.757500     0.220237     0.055685    Uiso  ? C
   C16        1.0     0.658263     0.277735     0.055679    Uiso  ? C
   C17        1.0     0.855612     0.052429     0.055694    Uiso  ? C
   C18        1.0     0.956099     0.108875     0.055743    Uiso  ? C
   C19        1.0     0.957287     0.220042     0.055735    Uiso  ? C
   C20        1.0     0.857808     0.275524     0.055697    Uiso  ? C
   C21        1.0     0.058008     0.387704     0.055759    Uiso  ? C
   C22        1.0     0.157101     0.443694     0.055775    Uiso  ? C
   C23        1.0     0.156353     0.554806     0.055786    Uiso  ? C
   C24        1.0     0.056652     0.609971     0.055781    Uiso  ? C
   C25        1.0     0.257371     0.389465     0.055760    Uiso  ? C
   C26        1.0     0.357371     0.445684     0.055714    Uiso  ? C
   C27        1.0     0.356459     0.558783     0.055704    Uiso  ? C
   C28        1.0     0.255227     0.611837     0.055765    Uiso  ? C
   C29        1.0     0.760898     0.443345     0.055653    Uiso  ? C
   C30        1.0     0.859886     0.386627     0.055689    Uiso  ? C
   C31        1.0     0.958474     0.442992     0.055729    Uiso  ? C
   C32        1.0     0.957123     0.554264     0.055740    Uiso  ? C
   C33        1.0     0.856545     0.608988     0.055692    Uiso  ? C
   C34        1.0     0.055542     0.721144     0.055789    Uiso  ? C
   C35        1.0     0.153760     0.777887     0.055806    Uiso  ? C
   C36        1.0     0.155095     0.889072     0.055822    Uiso  ? C
   C37        1.0     0.055531     0.944037     0.055803    Uiso  ? C
   C38        1.0     0.252700     0.722538     0.055778    Uiso  ? C
   C39        1.0     0.351064     0.777958     0.055744    Uiso  ? C
   C40        1.0     0.354330     0.889228     0.055773    Uiso  ? C
   C41        1.0     0.255063     0.944987     0.055818    Uiso  ? C
   C42        1.0     0.448789     0.721002     0.055671    Uiso  ? C
   C43        1.0     0.553109     0.885522     0.055641    Uiso  ? C
   C44        1.0     0.454546     0.944285     0.055730    Uiso  ? C
   C45        1.0     0.755694     0.881182     0.055623    Uiso  ? C
   C46        1.0     0.655940     0.939258     0.055614    Uiso  ? C
   C47        1.0     0.857215     0.721640     0.055688    Uiso  ? C
   C48        1.0     0.956029     0.776863     0.055751    Uiso  ? C
   C49        1.0     0.956046     0.887736     0.055749    Uiso  ? C
   C50        1.0     0.854877     0.940360     0.055682    Uiso  ? C
   C51        1.0     0.457495     0.392964     0.055663    Uiso  ? C
   C52        1.0     0.662165     0.387201     0.055651    Uiso  ? C
   C53        1.0     0.756053     0.555381     0.055652    Uiso  ? C
   C54        1.0     0.547385     0.776684     0.055620    Uiso  ? C
   N1         1.0     0.452188     0.612141     0.055641    Uiso  ? N
   N2         1.0     0.758623     0.771323     0.055607    Uiso  ? N
   Fe1        1.0     0.642857     0.667625     0.055588    Uiso  ? Fe
   Ni1        1.0     0.567608     0.493750     0.055620    Uiso  ? Ni
