
#======================================================================
# CRYSTAL DATA
#----------------------------------------------------------------------
data_VESTA_phase_1

_chemical_name_common                  'CONTCAR\(2)                           '
_cell_length_a                         12.331300
_cell_length_b                         12.829200
_cell_length_c                         19.994400
_cell_angle_alpha                      89.996696
_cell_angle_beta                       89.998299
_cell_angle_gamma                      89.999496
_cell_volume                           3163.128245
_space_group_name_H-M_alt              'P 1'
_space_group_IT_number                 1

loop_
_space_group_symop_operation_xyz
   'x, y, z'

loop_
   _atom_site_label
   _atom_site_occupancy
   _atom_site_fract_x
   _atom_site_fract_y
   _atom_site_fract_z
   _atom_site_adp_type
   _atom_site_U_iso_or_equiv
   _atom_site_type_symbol
   C1         1.0     0.055346     0.054616     0.055248    Uiso  ? C
   C2         1.0     0.155421     0.110647     0.055012    Uiso  ? C
   C3         1.0     0.156203     0.221430     0.054345    Uiso  ? C
   C4         1.0     0.056519     0.276264     0.053173    Uiso  ? C
   C5         1.0     0.255506     0.056346     0.055270    Uiso  ? C
   C6         1.0     0.355969     0.112004     0.056412    Uiso  ? C
   C7         1.0     0.356477     0.223653     0.056795    Uiso  ? C
   C8         1.0     0.256107     0.277389     0.054909    Uiso  ? C
   C9         1.0     0.455411     0.056209     0.057152    Uiso  ? C
   C10        1.0     0.555260     0.112462     0.058849    Uiso  ? C
   C11        1.0     0.555852     0.224618     0.060045    Uiso  ? C
   C12        1.0     0.455620     0.281874     0.058797    Uiso  ? C
   C13        1.0     0.654591     0.052748     0.058928    Uiso  ? C
   C14        1.0     0.755136     0.109120     0.057776    Uiso  ? C
   C15        1.0     0.756479     0.220994     0.057214    Uiso  ? C
   C16        1.0     0.657486     0.279870     0.060333    Uiso  ? C
   C17        1.0     0.854386     0.052395     0.056843    Uiso  ? C
   C18        1.0     0.954891     0.108931     0.055387    Uiso  ? C
   C19        1.0     0.956141     0.220297     0.054032    Uiso  ? C
   C20        1.0     0.856783     0.276376     0.054305    Uiso  ? C
   C21        1.0     0.058255     0.387487     0.051922    Uiso  ? C
   C22        1.0     0.157416     0.443785     0.052089    Uiso  ? C
   C23        1.0     0.157938     0.555141     0.051781    Uiso  ? C
   C24        1.0     0.058164     0.610151     0.052082    Uiso  ? C
   C25        1.0     0.256830     0.388382     0.053625    Uiso  ? C
   C26        1.0     0.356836     0.443197     0.054995    Uiso  ? C
   C27        1.0     0.359642     0.557188     0.053508    Uiso  ? C
   C28        1.0     0.257486     0.610937     0.052106    Uiso  ? C
   C29        1.0     0.761258     0.445881     0.055780    Uiso  ? C
   C30        1.0     0.859608     0.387787     0.052554    Uiso  ? C
   C31        1.0     0.959013     0.442813     0.051324    Uiso  ? C
   C32        1.0     0.959015     0.553671     0.051938    Uiso  ? C
   C33        1.0     0.859664     0.609020     0.053762    Uiso  ? C
   C34        1.0     0.056703     0.721558     0.053265    Uiso  ? C
   C35        1.0     0.155174     0.777509     0.053074    Uiso  ? C
   C36        1.0     0.154823     0.888863     0.054145    Uiso  ? C
   C37        1.0     0.054842     0.943697     0.055302    Uiso  ? C
   C38        1.0     0.254743     0.721919     0.052214    Uiso  ? C
   C39        1.0     0.352408     0.779274     0.052781    Uiso  ? C
   C40        1.0     0.353636     0.890246     0.054022    Uiso  ? C
   C41        1.0     0.254280     0.945407     0.054325    Uiso  ? C
   C42        1.0     0.451415     0.724761     0.054336    Uiso  ? C
   C43        1.0     0.552150     0.885746     0.057565    Uiso  ? C
   C44        1.0     0.453847     0.944809     0.055985    Uiso  ? C
   C45        1.0     0.753248     0.880817     0.059405    Uiso  ? C
   C46        1.0     0.654127     0.940430     0.059169    Uiso  ? C
   C47        1.0     0.858481     0.720682     0.056416    Uiso  ? C
   C48        1.0     0.956792     0.776878     0.055213    Uiso  ? C
   C49        1.0     0.954938     0.887544     0.056232    Uiso  ? C
   C50        1.0     0.853414     0.940242     0.057620    Uiso  ? C
   C51        1.0     0.458968     0.613279     0.055281    Uiso  ? C
   C52        1.0     0.663339     0.389068     0.062604    Uiso  ? C
   C53        1.0     0.759146     0.557980     0.055280    Uiso  ? C
   C54        1.0     0.756000     0.768153     0.060053    Uiso  ? C
   N1         1.0     0.452980     0.390375     0.058666    Uiso  ? N
   N2         1.0     0.547463     0.779974     0.057083    Uiso  ? N
   Fe1        1.0     0.636329     0.659566     0.062546    Uiso  ? Fe
   Ni1        1.0     0.562689     0.491445     0.067942    Uiso  ? Ni
   H1         1.0     0.626977     0.574068     0.119880    Uiso  ? H
