
#======================================================================
# CRYSTAL DATA
#----------------------------------------------------------------------
data_VESTA_phase_1

_chemical_name_common                  'CONTCAR\(2)                           '
_cell_length_a                         12.331300
_cell_length_b                         12.829200
_cell_length_c                         19.994400
_cell_angle_alpha                      89.996696
_cell_angle_beta                       89.998299
_cell_angle_gamma                      89.999496
_cell_volume                           3163.128245
_space_group_name_H-M_alt              'P 1'
_space_group_IT_number                 1

loop_
_space_group_symop_operation_xyz
   'x, y, z'

loop_
   _atom_site_label
   _atom_site_occupancy
   _atom_site_fract_x
   _atom_site_fract_y
   _atom_site_fract_z
   _atom_site_adp_type
   _atom_site_U_iso_or_equiv
   _atom_site_type_symbol
   C1         1.0     0.055268     0.055473     0.048866    Uiso  ? C
   C2         1.0     0.155443     0.111038     0.049147    Uiso  ? C
   C3         1.0     0.155722     0.221772     0.048157    Uiso  ? C
   C4         1.0     0.055891     0.276728     0.047059    Uiso  ? C
   C5         1.0     0.255745     0.056607     0.051157    Uiso  ? C
   C6         1.0     0.356066     0.112303     0.054867    Uiso  ? C
   C7         1.0     0.356199     0.224167     0.054516    Uiso  ? C
   C8         1.0     0.255609     0.277546     0.049584    Uiso  ? C
   C9         1.0     0.455348     0.056421     0.059154    Uiso  ? C
   C10        1.0     0.554873     0.113241     0.062640    Uiso  ? C
   C11        1.0     0.555379     0.225612     0.064307    Uiso  ? C
   C12        1.0     0.454913     0.282808     0.059703    Uiso  ? C
   C13        1.0     0.654244     0.053434     0.062177    Uiso  ? C
   C14        1.0     0.754635     0.110014     0.058306    Uiso  ? C
   C15        1.0     0.755720     0.222094     0.058974    Uiso  ? C
   C16        1.0     0.657136     0.281106     0.066079    Uiso  ? C
   C17        1.0     0.854334     0.053944     0.053787    Uiso  ? C
   C18        1.0     0.954774     0.110073     0.050677    Uiso  ? C
   C19        1.0     0.955490     0.221288     0.050019    Uiso  ? C
   C20        1.0     0.855976     0.277219     0.053524    Uiso  ? C
   C21        1.0     0.057100     0.387860     0.044659    Uiso  ? C
   C22        1.0     0.156250     0.443949     0.044032    Uiso  ? C
   C23        1.0     0.156826     0.555375     0.042869    Uiso  ? C
   C24        1.0     0.057720     0.610687     0.041882    Uiso  ? C
   C25        1.0     0.255705     0.388284     0.047590    Uiso  ? C
   C26        1.0     0.355010     0.443156     0.051989    Uiso  ? C
   C27        1.0     0.356560     0.556904     0.052521    Uiso  ? C
   C28        1.0     0.256106     0.611188     0.046094    Uiso  ? C
   C29        1.0     0.759653     0.446769     0.059518    Uiso  ? C
   C30        1.0     0.857945     0.388595     0.051683    Uiso  ? C
   C31        1.0     0.957572     0.443324     0.045480    Uiso  ? C
   C32        1.0     0.958808     0.554130     0.043569    Uiso  ? C
   C33        1.0     0.859851     0.609542     0.046882    Uiso  ? C
   C34        1.0     0.057006     0.722425     0.042703    Uiso  ? C
   C35        1.0     0.155564     0.778163     0.044596    Uiso  ? C
   C36        1.0     0.155170     0.889532     0.046794    Uiso  ? C
   C37        1.0     0.055123     0.944599     0.047405    Uiso  ? C
   C38        1.0     0.255010     0.722223     0.046964    Uiso  ? C
   C39        1.0     0.353061     0.778536     0.053372    Uiso  ? C
   C40        1.0     0.354030     0.889869     0.054309    Uiso  ? C
   C41        1.0     0.254851     0.945546     0.050223    Uiso  ? C
   C42        1.0     0.451004     0.722709     0.062780    Uiso  ? C
   C43        1.0     0.551796     0.884929     0.065707    Uiso  ? C
   C44        1.0     0.453958     0.944525     0.059792    Uiso  ? C
   C45        1.0     0.754225     0.883539     0.057625    Uiso  ? C
   C46        1.0     0.653875     0.940842     0.063204    Uiso  ? C
   C47        1.0     0.859280     0.722100     0.047350    Uiso  ? C
   C48        1.0     0.957446     0.778139     0.044915    Uiso  ? C
   C49        1.0     0.955207     0.888773     0.047804    Uiso  ? C
   C50        1.0     0.853999     0.942166     0.052715    Uiso  ? C
   C51        1.0     0.454743     0.610648     0.063318    Uiso  ? C
   C52        1.0     0.662207     0.390542     0.072114    Uiso  ? C
   C53        1.0     0.760822     0.558201     0.055865    Uiso  ? C
   C54        1.0     0.758734     0.772093     0.055454    Uiso  ? C
   N1         1.0     0.451578     0.391650     0.059019    Uiso  ? N
   N2         1.0     0.546582     0.778593     0.071375    Uiso  ? N
   Fe1        1.0     0.652527     0.666258     0.078878    Uiso  ? Fe
   Ni1        1.0     0.556009     0.490092     0.084215    Uiso  ? Ni
   O1         1.0     0.622321     0.575621     0.155518    Uiso  ? O
   H1         1.0     0.560402     0.603668     0.180200    Uiso  ? H
