
#======================================================================
# CRYSTAL DATA
#----------------------------------------------------------------------
data_VESTA_phase_1

_chemical_name_common                  'CONTCAR\(2)                           '
_cell_length_a                         12.331300
_cell_length_b                         12.829200
_cell_length_c                         19.994400
_cell_angle_alpha                      89.996696
_cell_angle_beta                       89.998299
_cell_angle_gamma                      89.999496
_cell_volume                           3163.128245
_space_group_name_H-M_alt              'P 1'
_space_group_IT_number                 1

loop_
_space_group_symop_operation_xyz
   'x, y, z'

loop_
   _atom_site_label
   _atom_site_occupancy
   _atom_site_fract_x
   _atom_site_fract_y
   _atom_site_fract_z
   _atom_site_adp_type
   _atom_site_U_iso_or_equiv
   _atom_site_type_symbol
   C1         1.0     0.055242     0.054795     0.051525    Uiso  ? C
   C2         1.0     0.155476     0.110246     0.051416    Uiso  ? C
   C3         1.0     0.155592     0.221017     0.050177    Uiso  ? C
   C4         1.0     0.055732     0.276161     0.048621    Uiso  ? C
   C5         1.0     0.255774     0.055682     0.053079    Uiso  ? C
   C6         1.0     0.356053     0.111310     0.056628    Uiso  ? C
   C7         1.0     0.355887     0.222997     0.056624    Uiso  ? C
   C8         1.0     0.255473     0.276637     0.051585    Uiso  ? C
   C9         1.0     0.455633     0.055689     0.060498    Uiso  ? C
   C10        1.0     0.555047     0.112462     0.064220    Uiso  ? C
   C11        1.0     0.555214     0.225026     0.065992    Uiso  ? C
   C12        1.0     0.454466     0.281459     0.062254    Uiso  ? C
   C13        1.0     0.654431     0.052967     0.064019    Uiso  ? C
   C14        1.0     0.754581     0.109865     0.060514    Uiso  ? C
   C15        1.0     0.755319     0.222190     0.060139    Uiso  ? C
   C16        1.0     0.656379     0.281367     0.066437    Uiso  ? C
   C17        1.0     0.854247     0.053456     0.056603    Uiso  ? C
   C18        1.0     0.954641     0.109558     0.053197    Uiso  ? C
   C19        1.0     0.955150     0.220934     0.051661    Uiso  ? C
   C20        1.0     0.855560     0.277283     0.054244    Uiso  ? C
   C21        1.0     0.057027     0.387211     0.045588    Uiso  ? C
   C22        1.0     0.156553     0.443106     0.045043    Uiso  ? C
   C23        1.0     0.157777     0.554550     0.043999    Uiso  ? C
   C24        1.0     0.058687     0.610062     0.043146    Uiso  ? C
   C25        1.0     0.255771     0.387401     0.048874    Uiso  ? C
   C26        1.0     0.355595     0.441813     0.053123    Uiso  ? C
   C27        1.0     0.358327     0.555463     0.051413    Uiso  ? C
   C28        1.0     0.257383     0.610073     0.046499    Uiso  ? C
   C29        1.0     0.758831     0.447641     0.057206    Uiso  ? C
   C30        1.0     0.857482     0.388724     0.050915    Uiso  ? C
   C31        1.0     0.957568     0.442810     0.045336    Uiso  ? C
   C32        1.0     0.959475     0.553714     0.043744    Uiso  ? C
   C33        1.0     0.861131     0.609467     0.046864    Uiso  ? C
   C34        1.0     0.057601     0.721643     0.044762    Uiso  ? C
   C35        1.0     0.156328     0.777291     0.046285    Uiso  ? C
   C36        1.0     0.155560     0.888638     0.048892    Uiso  ? C
   C37        1.0     0.055360     0.943884     0.050302    Uiso  ? C
   C38        1.0     0.255945     0.721228     0.047508    Uiso  ? C
   C39        1.0     0.353993     0.777710     0.052964    Uiso  ? C
   C40        1.0     0.354593     0.888934     0.054654    Uiso  ? C
   C41        1.0     0.255146     0.944584     0.051776    Uiso  ? C
   C42        1.0     0.452861     0.722116     0.060192    Uiso  ? C
   C43        1.0     0.552423     0.884539     0.065106    Uiso  ? C
   C44        1.0     0.454525     0.943740     0.060043    Uiso  ? C
   C45        1.0     0.754433     0.882359     0.060924    Uiso  ? C
   C46        1.0     0.654270     0.940236     0.064801    Uiso  ? C
   C47        1.0     0.859878     0.721365     0.050265    Uiso  ? C
   C48        1.0     0.957939     0.777472     0.048017    Uiso  ? C
   C49        1.0     0.955502     0.888159     0.051313    Uiso  ? C
   C50        1.0     0.854122     0.941375     0.056173    Uiso  ? C
   C51        1.0     0.456824     0.610109     0.059608    Uiso  ? C
   C52        1.0     0.662000     0.391438     0.071144    Uiso  ? C
   C53        1.0     0.761237     0.558890     0.052983    Uiso  ? C
   C54        1.0     0.758728     0.770523     0.059010    Uiso  ? C
   N1         1.0     0.451063     0.389807     0.062495    Uiso  ? N
   N2         1.0     0.548015     0.777783     0.068065    Uiso  ? N
   Fe1        1.0     0.648716     0.662748     0.075794    Uiso  ? Fe
   Ni1        1.0     0.554494     0.488930     0.090812    Uiso  ? Ni
   O1         1.0     0.626557     0.579333     0.143629    Uiso  ? O
