
#======================================================================
# CRYSTAL DATA
#----------------------------------------------------------------------
data_VESTA_phase_1

_chemical_name_common                  'CONTCAR\(2)                           '
_cell_length_a                         12.331300
_cell_length_b                         12.829200
_cell_length_c                         19.994400
_cell_angle_alpha                      89.996696
_cell_angle_beta                       89.998299
_cell_angle_gamma                      89.999496
_cell_volume                           3163.128245
_space_group_name_H-M_alt              'P 1'
_space_group_IT_number                 1

loop_
_space_group_symop_operation_xyz
   'x, y, z'

loop_
   _atom_site_label
   _atom_site_occupancy
   _atom_site_fract_x
   _atom_site_fract_y
   _atom_site_fract_z
   _atom_site_adp_type
   _atom_site_U_iso_or_equiv
   _atom_site_type_symbol
   C1         1.0     0.053663     0.054572     0.046365    Uiso  ? C
   C2         1.0     0.153796     0.109854     0.045203    Uiso  ? C
   C3         1.0     0.153699     0.220746     0.044965    Uiso  ? C
   C4         1.0     0.053890     0.276179     0.046421    Uiso  ? C
   C5         1.0     0.254079     0.054839     0.045473    Uiso  ? C
   C6         1.0     0.354357     0.110228     0.047176    Uiso  ? C
   C7         1.0     0.353969     0.221746     0.047028    Uiso  ? C
   C8         1.0     0.253703     0.276157     0.044938    Uiso  ? C
   C9         1.0     0.454119     0.054711     0.050098    Uiso  ? C
   C10        1.0     0.553370     0.111595     0.053756    Uiso  ? C
   C11        1.0     0.553262     0.223643     0.055788    Uiso  ? C
   C12        1.0     0.452681     0.279641     0.051066    Uiso  ? C
   C13        1.0     0.652868     0.052739     0.055232    Uiso  ? C
   C14        1.0     0.752972     0.109638     0.054021    Uiso  ? C
   C15        1.0     0.753570     0.221787     0.055438    Uiso  ? C
   C16        1.0     0.653966     0.280136     0.060304    Uiso  ? C
   C17        1.0     0.852829     0.053494     0.051228    Uiso  ? C
   C18        1.0     0.953083     0.109670     0.048512    Uiso  ? C
   C19        1.0     0.953290     0.221157     0.048909    Uiso  ? C
   C20        1.0     0.853486     0.277548     0.052874    Uiso  ? C
   C21        1.0     0.055135     0.387321     0.046666    Uiso  ? C
   C22        1.0     0.154786     0.442891     0.045097    Uiso  ? C
   C23        1.0     0.156477     0.554245     0.045268    Uiso  ? C
   C24        1.0     0.056900     0.609675     0.046956    Uiso  ? C
   C25        1.0     0.254198     0.387048     0.044768    Uiso  ? C
   C26        1.0     0.354647     0.441168     0.046767    Uiso  ? C
   C27        1.0     0.358984     0.555040     0.048461    Uiso  ? C
   C28        1.0     0.256741     0.609402     0.045741    Uiso  ? C
   C29        1.0     0.755789     0.448006     0.063026    Uiso  ? C
   C30        1.0     0.855018     0.389344     0.054283    Uiso  ? C
   C31        1.0     0.955518     0.443123     0.050193    Uiso  ? C
   C32        1.0     0.957337     0.553806     0.050768    Uiso  ? C
   C33        1.0     0.858451     0.609440     0.057172    Uiso  ? C
   C34        1.0     0.056247     0.721095     0.046740    Uiso  ? C
   C35        1.0     0.155032     0.776512     0.045441    Uiso  ? C
   C36        1.0     0.154143     0.887959     0.045331    Uiso  ? C
   C37        1.0     0.054013     0.943513     0.046465    Uiso  ? C
   C38        1.0     0.254862     0.720383     0.046041    Uiso  ? C
   C39        1.0     0.353425     0.776660     0.047978    Uiso  ? C
   C40        1.0     0.353553     0.887975     0.047356    Uiso  ? C
   C41        1.0     0.253816     0.943713     0.045456    Uiso  ? C
   C42        1.0     0.452982     0.721189     0.052737    Uiso  ? C
   C43        1.0     0.551770     0.883886     0.054337    Uiso  ? C
   C44        1.0     0.453461     0.942900     0.050193    Uiso  ? C
   C45        1.0     0.753157     0.883285     0.056711    Uiso  ? C
   C46        1.0     0.652876     0.940385     0.056324    Uiso  ? C
   C47        1.0     0.858612     0.721494     0.055545    Uiso  ? C
   C48        1.0     0.956616     0.777112     0.049425    Uiso  ? C
   C49        1.0     0.954296     0.887933     0.049000    Uiso  ? C
   C50        1.0     0.852973     0.941543     0.051943    Uiso  ? C
   C51        1.0     0.458884     0.609394     0.055215    Uiso  ? C
   C52        1.0     0.659070     0.389019     0.069140    Uiso  ? C
   C53        1.0     0.758361     0.559770     0.066153    Uiso  ? C
   C54        1.0     0.758023     0.772075     0.061008    Uiso  ? C
   N1         1.0     0.449902     0.387525     0.050910    Uiso  ? N
   N2         1.0     0.548535     0.777013     0.055961    Uiso  ? N
   Fe1        1.0     0.651664     0.673028     0.087170    Uiso  ? Fe
   Ni1        1.0     0.548406     0.478888     0.091603    Uiso  ? Ni
   O1         1.0     0.575509     0.507710     0.177242    Uiso  ? O
   O2         1.0     0.687253     0.686051     0.174046    Uiso  ? O
   H1         1.0     0.760390     0.711038     0.183468    Uiso  ? H
   H2         1.0     0.621877     0.567605     0.189231    Uiso  ? H
