
#======================================================================
# CRYSTAL DATA
#----------------------------------------------------------------------
data_VESTA_phase_1

_chemical_name_common                  'CONTCAR\(2)                           '
_cell_length_a                         12.331300
_cell_length_b                         12.829200
_cell_length_c                         19.994400
_cell_angle_alpha                      89.996696
_cell_angle_beta                       89.998299
_cell_angle_gamma                      89.999496
_cell_volume                           3163.128245
_space_group_name_H-M_alt              'P 1'
_space_group_IT_number                 1

loop_
_space_group_symop_operation_xyz
   'x, y, z'

loop_
   _atom_site_label
   _atom_site_occupancy
   _atom_site_fract_x
   _atom_site_fract_y
   _atom_site_fract_z
   _atom_site_adp_type
   _atom_site_U_iso_or_equiv
   _atom_site_type_symbol
   C1         1.0     0.055183     0.054805     0.049676    Uiso  ? C
   C2         1.0     0.155308     0.110559     0.049615    Uiso  ? C
   C3         1.0     0.155875     0.221379     0.049150    Uiso  ? C
   C4         1.0     0.056102     0.276326     0.048482    Uiso  ? C
   C5         1.0     0.255394     0.056053     0.050723    Uiso  ? C
   C6         1.0     0.355784     0.111641     0.053154    Uiso  ? C
   C7         1.0     0.356082     0.223235     0.053524    Uiso  ? C
   C8         1.0     0.255799     0.277152     0.050411    Uiso  ? C
   C9         1.0     0.455206     0.055930     0.055785    Uiso  ? C
   C10        1.0     0.554879     0.112183     0.058740    Uiso  ? C
   C11        1.0     0.555324     0.224229     0.060913    Uiso  ? C
   C12        1.0     0.455095     0.281168     0.057876    Uiso  ? C
   C13        1.0     0.654277     0.052876     0.058496    Uiso  ? C
   C14        1.0     0.754690     0.109410     0.056009    Uiso  ? C
   C15        1.0     0.755823     0.221310     0.056417    Uiso  ? C
   C16        1.0     0.656681     0.279849     0.062494    Uiso  ? C
   C17        1.0     0.854334     0.053178     0.053161    Uiso  ? C
   C18        1.0     0.954728     0.109437     0.050873    Uiso  ? C
   C19        1.0     0.955613     0.220765     0.050256    Uiso  ? C
   C20        1.0     0.855994     0.276732     0.052466    Uiso  ? C
   C21        1.0     0.057612     0.387415     0.047274    Uiso  ? C
   C22        1.0     0.157021     0.443489     0.047449    Uiso  ? C
   C23        1.0     0.158126     0.554841     0.047127    Uiso  ? C
   C24        1.0     0.058505     0.609941     0.046495    Uiso  ? C
   C25        1.0     0.256628     0.388071     0.049561    Uiso  ? C
   C26        1.0     0.356665     0.442679     0.052679    Uiso  ? C
   C27        1.0     0.359984     0.556599     0.052897    Uiso  ? C
   C28        1.0     0.257859     0.610460     0.048978    Uiso  ? C
   C29        1.0     0.759199     0.446465     0.057607    Uiso  ? C
   C30        1.0     0.857966     0.388185     0.051159    Uiso  ? C
   C31        1.0     0.957968     0.442781     0.047606    Uiso  ? C
   C32        1.0     0.959341     0.553485     0.047264    Uiso  ? C
   C33        1.0     0.860082     0.608508     0.049852    Uiso  ? C
   C34        1.0     0.057077     0.721408     0.047017    Uiso  ? C
   C35        1.0     0.155551     0.777236     0.047692    Uiso  ? C
   C36        1.0     0.154951     0.888716     0.048602    Uiso  ? C
   C37        1.0     0.054906     0.943848     0.049182    Uiso  ? C
   C38        1.0     0.255189     0.721476     0.048948    Uiso  ? C
   C39        1.0     0.352891     0.778579     0.051855    Uiso  ? C
   C40        1.0     0.353815     0.889654     0.052123    Uiso  ? C
   C41        1.0     0.254390     0.945053     0.050100    Uiso  ? C
   C42        1.0     0.451669     0.723650     0.057981    Uiso  ? C
   C43        1.0     0.551852     0.885376     0.059461    Uiso  ? C
   C44        1.0     0.453779     0.944397     0.055617    Uiso  ? C
   C45        1.0     0.753814     0.882658     0.056679    Uiso  ? C
   C46        1.0     0.653865     0.940636     0.059135    Uiso  ? C
   C47        1.0     0.859038     0.720918     0.050642    Uiso  ? C
   C48        1.0     0.957178     0.777056     0.048623    Uiso  ? C
   C49        1.0     0.955068     0.887884     0.050084    Uiso  ? C
   C50        1.0     0.853855     0.941247     0.053119    Uiso  ? C
   C51        1.0     0.459149     0.611922     0.060077    Uiso  ? C
   C52        1.0     0.662287     0.388728     0.069025    Uiso  ? C
   C53        1.0     0.760180     0.557552     0.055485    Uiso  ? C
   C54        1.0     0.757818     0.770987     0.056263    Uiso  ? C
   N1         1.0     0.452606     0.389647     0.058350    Uiso  ? N
   N2         1.0     0.546931     0.779456     0.062017    Uiso  ? N
   Fe1        1.0     0.647354     0.665417     0.070082    Uiso  ? Fe
   Ni1        1.0     0.556764     0.484357     0.088786    Uiso  ? Ni
   O1         1.0     0.616581     0.540841     0.165527    Uiso  ? O
   O2         1.0     0.646726     0.645353     0.157322    Uiso  ? O
