
#======================================================================
# CRYSTAL DATA
#----------------------------------------------------------------------
data_VESTA_phase_1

_chemical_name_common                  'CONTCAR                               '
_cell_length_a                         12.331300
_cell_length_b                         12.829200
_cell_length_c                         19.994400
_cell_angle_alpha                      89.996696
_cell_angle_beta                       89.998299
_cell_angle_gamma                      89.999496
_cell_volume                           3163.128245
_space_group_name_H-M_alt              'P 1'
_space_group_IT_number                 1

loop_
_space_group_symop_operation_xyz
   'x, y, z'

loop_
   _atom_site_label
   _atom_site_occupancy
   _atom_site_fract_x
   _atom_site_fract_y
   _atom_site_fract_z
   _atom_site_adp_type
   _atom_site_U_iso_or_equiv
   _atom_site_type_symbol
   C1         1.0     0.055804     0.054371     0.055778    Uiso  ? C
   C2         1.0     0.155770     0.110558     0.055792    Uiso  ? C
   C3         1.0     0.156584     0.221414     0.055777    Uiso  ? C
   C4         1.0     0.056939     0.276164     0.055755    Uiso  ? C
   C5         1.0     0.255832     0.056307     0.055801    Uiso  ? C
   C6         1.0     0.356244     0.112142     0.055770    Uiso  ? C
   C7         1.0     0.356932     0.223907     0.055744    Uiso  ? C
   C8         1.0     0.256454     0.277516     0.055764    Uiso  ? C
   C9         1.0     0.455513     0.056246     0.055740    Uiso  ? C
   C10        1.0     0.555387     0.112351     0.055701    Uiso  ? C
   C11        1.0     0.556058     0.224341     0.055685    Uiso  ? C
   C12        1.0     0.456139     0.282283     0.055689    Uiso  ? C
   C13        1.0     0.654796     0.052805     0.055669    Uiso  ? C
   C14        1.0     0.755531     0.108743     0.055684    Uiso  ? C
   C15        1.0     0.756940     0.220432     0.055699    Uiso  ? C
   C16        1.0     0.657836     0.278854     0.055677    Uiso  ? C
   C17        1.0     0.854934     0.052265     0.055696    Uiso  ? C
   C18        1.0     0.955479     0.108706     0.055735    Uiso  ? C
   C19        1.0     0.956743     0.219993     0.055733    Uiso  ? C
   C20        1.0     0.857373     0.275739     0.055712    Uiso  ? C
   C21        1.0     0.058614     0.387420     0.055747    Uiso  ? C
   C22        1.0     0.157673     0.443747     0.055762    Uiso  ? C
   C23        1.0     0.157893     0.555063     0.055767    Uiso  ? C
   C24        1.0     0.057965     0.609891     0.055754    Uiso  ? C
   C25        1.0     0.257254     0.388494     0.055758    Uiso  ? C
   C26        1.0     0.357431     0.443326     0.055721    Uiso  ? C
   C27        1.0     0.359964     0.557301     0.055720    Uiso  ? C
   C28        1.0     0.257701     0.610739     0.055766    Uiso  ? C
   C29        1.0     0.761605     0.444388     0.055664    Uiso  ? C
   C30        1.0     0.860254     0.386979     0.055696    Uiso  ? C
   C31        1.0     0.959199     0.442514     0.055717    Uiso  ? C
   C32        1.0     0.958432     0.553470     0.055710    Uiso  ? C
   C33        1.0     0.858390     0.608212     0.055670    Uiso  ? C
   C34        1.0     0.056852     0.721267     0.055781    Uiso  ? C
   C35        1.0     0.155327     0.777223     0.055810    Uiso  ? C
   C36        1.0     0.155099     0.888616     0.055821    Uiso  ? C
   C37        1.0     0.055186     0.943405     0.055791    Uiso  ? C
   C38        1.0     0.254884     0.721725     0.055790    Uiso  ? C
   C39        1.0     0.352489     0.779003     0.055759    Uiso  ? C
   C40        1.0     0.353813     0.890022     0.055777    Uiso  ? C
   C41        1.0     0.254548     0.945248     0.055816    Uiso  ? C
   C42        1.0     0.451462     0.724323     0.055682    Uiso  ? C
   C43        1.0     0.552129     0.886222     0.055653    Uiso  ? C
   C44        1.0     0.453892     0.944928     0.055731    Uiso  ? C
   C45        1.0     0.753712     0.881351     0.055633    Uiso  ? C
   C46        1.0     0.654228     0.940568     0.055635    Uiso  ? C
   C47        1.0     0.858564     0.720330     0.055674    Uiso  ? C
   C48        1.0     0.956986     0.776445     0.055744    Uiso  ? C
   C49        1.0     0.955285     0.887222     0.055744    Uiso  ? C
   C50        1.0     0.853986     0.940283     0.055681    Uiso  ? C
   C51        1.0     0.459924     0.612725     0.055670    Uiso  ? C
   C52        1.0     0.663619     0.387748     0.055655    Uiso  ? C
   C53        1.0     0.756983     0.556473     0.055651    Uiso  ? C
   C54        1.0     0.756712     0.769105     0.055627    Uiso  ? C
   N1         1.0     0.453814     0.390998     0.055669    Uiso  ? N
   N2         1.0     0.547054     0.780445     0.055624    Uiso  ? N
   Fe1        1.0     0.638381     0.663601     0.055623    Uiso  ? Fe
   Ni1        1.0     0.566776     0.492643     0.055625    Uiso  ? Ni
