
#======================================================================
# CRYSTAL DATA
#----------------------------------------------------------------------
data_VESTA_phase_1

_chemical_name_common                  'CONTCAR\(2)                           '
_cell_length_a                         12.331300
_cell_length_b                         12.829200
_cell_length_c                         19.994400
_cell_angle_alpha                      89.996696
_cell_angle_beta                       89.998299
_cell_angle_gamma                      89.999496
_cell_volume                           3163.128245
_space_group_name_H-M_alt              'P 1'
_space_group_IT_number                 1

loop_
_space_group_symop_operation_xyz
   'x, y, z'

loop_
   _atom_site_label
   _atom_site_occupancy
   _atom_site_fract_x
   _atom_site_fract_y
   _atom_site_fract_z
   _atom_site_adp_type
   _atom_site_U_iso_or_equiv
   _atom_site_type_symbol
   C1         1.0     0.055359     0.052009     0.053739    Uiso  ? C
   C2         1.0     0.155332     0.108171     0.053744    Uiso  ? C
   C3         1.0     0.156113     0.218971     0.053640    Uiso  ? C
   C4         1.0     0.056494     0.273660     0.053364    Uiso  ? C
   C5         1.0     0.255401     0.053986     0.053901    Uiso  ? C
   C6         1.0     0.355840     0.109809     0.054166    Uiso  ? C
   C7         1.0     0.356478     0.221559     0.054122    Uiso  ? C
   C8         1.0     0.255989     0.275095     0.053799    Uiso  ? C
   C9         1.0     0.455079     0.053949     0.054381    Uiso  ? C
   C10        1.0     0.554986     0.110013     0.054608    Uiso  ? C
   C11        1.0     0.555672     0.222041     0.054477    Uiso  ? C
   C12        1.0     0.455655     0.279955     0.054249    Uiso  ? C
   C13        1.0     0.654333     0.050344     0.054915    Uiso  ? C
   C14        1.0     0.755072     0.106279     0.054489    Uiso  ? C
   C15        1.0     0.756503     0.218006     0.054230    Uiso  ? C
   C16        1.0     0.657482     0.276513     0.054560    Uiso  ? C
   C17        1.0     0.854457     0.049864     0.054201    Uiso  ? C
   C18        1.0     0.955028     0.106288     0.053729    Uiso  ? C
   C19        1.0     0.956256     0.217539     0.053476    Uiso  ? C
   C20        1.0     0.856923     0.273315     0.053649    Uiso  ? C
   C21        1.0     0.058180     0.384929     0.053106    Uiso  ? C
   C22        1.0     0.157164     0.441286     0.053165    Uiso  ? C
   C23        1.0     0.157376     0.552641     0.052996    Uiso  ? C
   C24        1.0     0.057598     0.607523     0.052955    Uiso  ? C
   C25        1.0     0.256677     0.386021     0.053621    Uiso  ? C
   C26        1.0     0.356810     0.440887     0.053874    Uiso  ? C
   C27        1.0     0.359177     0.554942     0.053947    Uiso  ? C
   C28        1.0     0.257039     0.608420     0.053280    Uiso  ? C
   C29        1.0     0.761333     0.442042     0.054500    Uiso  ? C
   C30        1.0     0.859890     0.384580     0.053511    Uiso  ? C
   C31        1.0     0.958860     0.440093     0.053045    Uiso  ? C
   C32        1.0     0.958160     0.551047     0.053023    Uiso  ? C
   C33        1.0     0.858290     0.605869     0.053760    Uiso  ? C
   C34        1.0     0.056429     0.718970     0.053172    Uiso  ? C
   C35        1.0     0.154814     0.774979     0.053340    Uiso  ? C
   C36        1.0     0.154625     0.886348     0.053618    Uiso  ? C
   C37        1.0     0.054739     0.941070     0.053778    Uiso  ? C
   C38        1.0     0.254208     0.719396     0.053366    Uiso  ? C
   C39        1.0     0.351773     0.776717     0.053738    Uiso  ? C
   C40        1.0     0.353253     0.887761     0.053897    Uiso  ? C
   C41        1.0     0.254069     0.942968     0.053773    Uiso  ? C
   C42        1.0     0.450557     0.722070     0.054274    Uiso  ? C
   C43        1.0     0.551500     0.883724     0.055037    Uiso  ? C
   C44        1.0     0.453349     0.942593     0.054279    Uiso  ? C
   C45        1.0     0.753310     0.878994     0.055714    Uiso  ? C
   C46        1.0     0.653740     0.938102     0.055510    Uiso  ? C
   C47        1.0     0.858350     0.717952     0.054393    Uiso  ? C
   C48        1.0     0.956653     0.774160     0.053632    Uiso  ? C
   C49        1.0     0.954877     0.884897     0.054008    Uiso  ? C
   C50        1.0     0.853530     0.937918     0.054572    Uiso  ? C
   C51        1.0     0.458820     0.610405     0.054752    Uiso  ? C
   C52        1.0     0.663260     0.385465     0.054912    Uiso  ? C
   C53        1.0     0.756948     0.554170     0.055129    Uiso  ? C
   C54        1.0     0.756510     0.766703     0.056509    Uiso  ? C
   N1         1.0     0.453182     0.388674     0.054051    Uiso  ? N
   N2         1.0     0.546224     0.778006     0.055360    Uiso  ? N
   Fe1        1.0     0.638397     0.661238     0.060770    Uiso  ? Fe
   Ni1        1.0     0.565936     0.489861     0.054783    Uiso  ? Ni
   H1         1.0     0.654236     0.671835     0.163673    Uiso  ? H
   H2         1.0     0.605686     0.633548     0.161301    Uiso  ? H
