
#======================================================================
# CRYSTAL DATA
#----------------------------------------------------------------------
data_VESTA_phase_1

_chemical_name_common                  'CONTCAR\(5)                           '
_cell_length_a                         12.331300
_cell_length_b                         12.829200
_cell_length_c                         19.994400
_cell_angle_alpha                      89.996696
_cell_angle_beta                       89.998299
_cell_angle_gamma                      89.999496
_cell_volume                           3163.128245
_space_group_name_H-M_alt              'P 1'
_space_group_IT_number                 1

loop_
_space_group_symop_operation_xyz
   'x, y, z'

loop_
   _atom_site_label
   _atom_site_occupancy
   _atom_site_fract_x
   _atom_site_fract_y
   _atom_site_fract_z
   _atom_site_adp_type
   _atom_site_U_iso_or_equiv
   _atom_site_type_symbol
   C1         1.0     0.056246     0.054230     0.053906    Uiso  ? C
   C2         1.0     0.156354     0.109755     0.053243    Uiso  ? C
   C3         1.0     0.156292     0.220687     0.052002    Uiso  ? C
   C4         1.0     0.056753     0.276200     0.051482    Uiso  ? C
   C5         1.0     0.256888     0.055411     0.054084    Uiso  ? C
   C6         1.0     0.356865     0.112156     0.054968    Uiso  ? C
   C7         1.0     0.356528     0.223757     0.054285    Uiso  ? C
   C8         1.0     0.255539     0.276687     0.052081    Uiso  ? C
   C9         1.0     0.456844     0.057423     0.056576    Uiso  ? C
   C10        1.0     0.556434     0.115184     0.058080    Uiso  ? C
   C11        1.0     0.556645     0.228123     0.058691    Uiso  ? C
   C12        1.0     0.455130     0.283343     0.056101    Uiso  ? C
   C13        1.0     0.655942     0.055938     0.058415    Uiso  ? C
   C14        1.0     0.756299     0.111341     0.057083    Uiso  ? C
   C15        1.0     0.757526     0.222964     0.056902    Uiso  ? C
   C16        1.0     0.659520     0.283321     0.059996    Uiso  ? C
   C17        1.0     0.855335     0.053987     0.055908    Uiso  ? C
   C18        1.0     0.955965     0.109338     0.054153    Uiso  ? C
   C19        1.0     0.956975     0.220508     0.052960    Uiso  ? C
   C20        1.0     0.857839     0.277018     0.054185    Uiso  ? C
   C21        1.0     0.057167     0.387532     0.050730    Uiso  ? C
   C22        1.0     0.155590     0.443741     0.050430    Uiso  ? C
   C23        1.0     0.156004     0.555125     0.051007    Uiso  ? C
   C24        1.0     0.056697     0.610562     0.052183    Uiso  ? C
   C25        1.0     0.254429     0.387336     0.051032    Uiso  ? C
   C26        1.0     0.353038     0.441835     0.052597    Uiso  ? C
   C27        1.0     0.355320     0.554394     0.053521    Uiso  ? C
   C28        1.0     0.255564     0.610487     0.052174    Uiso  ? C
   C29        1.0     0.760907     0.444359     0.057535    Uiso  ? C
   C30        1.0     0.859394     0.388004     0.053289    Uiso  ? C
   C31        1.0     0.958194     0.443514     0.051549    Uiso  ? C
   C32        1.0     0.957652     0.554196     0.052608    Uiso  ? C
   C33        1.0     0.857361     0.608707     0.055134    Uiso  ? C
   C34        1.0     0.056386     0.721876     0.053436    Uiso  ? C
   C35        1.0     0.155898     0.777188     0.053579    Uiso  ? C
   C36        1.0     0.156225     0.888476     0.054087    Uiso  ? C
   C37        1.0     0.055959     0.943382     0.054475    Uiso  ? C
   C38        1.0     0.256025     0.721390     0.053594    Uiso  ? C
   C39        1.0     0.355922     0.776476     0.055449    Uiso  ? C
   C40        1.0     0.356686     0.888393     0.055463    Uiso  ? C
   C41        1.0     0.256553     0.944031     0.054375    Uiso  ? C
   C42        1.0     0.456278     0.718697     0.057478    Uiso  ? C
   C43        1.0     0.555506     0.888531     0.058784    Uiso  ? C
   C44        1.0     0.456150     0.945380     0.056713    Uiso  ? C
   C45        1.0     0.754471     0.883936     0.059101    Uiso  ? C
   C46        1.0     0.655997     0.944374     0.059172    Uiso  ? C
   C47        1.0     0.856366     0.721392     0.056803    Uiso  ? C
   C48        1.0     0.956013     0.777095     0.055014    Uiso  ? C
   C49        1.0     0.955590     0.887871     0.055513    Uiso  ? C
   C50        1.0     0.854588     0.941786     0.056852    Uiso  ? C
   C51        1.0     0.757868     0.556090     0.057786    Uiso  ? C
   C52        1.0     0.553893     0.779383     0.061037    Uiso  ? C
   C53        1.0     0.754688     0.771303     0.060119    Uiso  ? C
   C54        1.0     0.456092     0.605425     0.057387    Uiso  ? C
   N1         1.0     0.449939     0.391259     0.055000    Uiso  ? N
   N2         1.0     0.665102     0.389265     0.063180    Uiso  ? N
   Fe1        1.0     0.636358     0.661292     0.073115    Uiso  ? Fe
   Ni1        1.0     0.559862     0.493778     0.067686    Uiso  ? Ni
   H1         1.0     0.612044     0.562747     0.124663    Uiso  ? H
