
#======================================================================
# CRYSTAL DATA
#----------------------------------------------------------------------
data_VESTA_phase_1

_chemical_name_common                  'CONTCAR\(5)                           '
_cell_length_a                         12.331300
_cell_length_b                         12.829200
_cell_length_c                         19.994400
_cell_angle_alpha                      89.996696
_cell_angle_beta                       89.998299
_cell_angle_gamma                      89.999496
_cell_volume                           3163.128245
_space_group_name_H-M_alt              'P 1'
_space_group_IT_number                 1

loop_
_space_group_symop_operation_xyz
   'x, y, z'

loop_
   _atom_site_label
   _atom_site_occupancy
   _atom_site_fract_x
   _atom_site_fract_y
   _atom_site_fract_z
   _atom_site_adp_type
   _atom_site_U_iso_or_equiv
   _atom_site_type_symbol
   C1         1.0     0.056229     0.054485     0.050912    Uiso  ? C
   C2         1.0     0.156365     0.109428     0.050422    Uiso  ? C
   C3         1.0     0.155701     0.220222     0.048690    Uiso  ? C
   C4         1.0     0.056053     0.276069     0.047797    Uiso  ? C
   C5         1.0     0.257146     0.054743     0.052262    Uiso  ? C
   C6         1.0     0.357273     0.111117     0.055178    Uiso  ? C
   C7         1.0     0.356384     0.223154     0.054067    Uiso  ? C
   C8         1.0     0.255131     0.275864     0.049303    Uiso  ? C
   C9         1.0     0.457148     0.055902     0.059130    Uiso  ? C
   C10        1.0     0.556225     0.114759     0.062226    Uiso  ? C
   C11        1.0     0.556078     0.227978     0.063112    Uiso  ? C
   C12        1.0     0.454394     0.283332     0.058414    Uiso  ? C
   C13        1.0     0.655761     0.055343     0.062723    Uiso  ? C
   C14        1.0     0.755838     0.111269     0.059663    Uiso  ? C
   C15        1.0     0.756671     0.223245     0.059356    Uiso  ? C
   C16        1.0     0.658895     0.283770     0.064466    Uiso  ? C
   C17        1.0     0.855436     0.054784     0.056213    Uiso  ? C
   C18        1.0     0.955893     0.109922     0.052536    Uiso  ? C
   C19        1.0     0.956242     0.220913     0.051212    Uiso  ? C
   C20        1.0     0.856766     0.277406     0.054565    Uiso  ? C
   C21        1.0     0.055871     0.387341     0.045203    Uiso  ? C
   C22        1.0     0.154363     0.443055     0.043974    Uiso  ? C
   C23        1.0     0.154622     0.554593     0.043345    Uiso  ? C
   C24        1.0     0.055881     0.610391     0.043987    Uiso  ? C
   C25        1.0     0.253243     0.386270     0.046865    Uiso  ? C
   C26        1.0     0.351510     0.440807     0.050791    Uiso  ? C
   C27        1.0     0.352598     0.553340     0.051208    Uiso  ? C
   C28        1.0     0.254175     0.610003     0.045917    Uiso  ? C
   C29        1.0     0.758434     0.444694     0.059618    Uiso  ? C
   C30        1.0     0.857671     0.388488     0.052968    Uiso  ? C
   C31        1.0     0.956601     0.443556     0.046874    Uiso  ? C
   C32        1.0     0.956670     0.554168     0.046016    Uiso  ? C
   C33        1.0     0.856987     0.609313     0.051299    Uiso  ? C
   C34        1.0     0.056561     0.722030     0.045749    Uiso  ? C
   C35        1.0     0.156115     0.777031     0.047064    Uiso  ? C
   C36        1.0     0.156593     0.888341     0.049327    Uiso  ? C
   C37        1.0     0.056417     0.943591     0.050474    Uiso  ? C
   C38        1.0     0.255855     0.720846     0.048218    Uiso  ? C
   C39        1.0     0.356172     0.774973     0.053700    Uiso  ? C
   C40        1.0     0.357276     0.887134     0.054575    Uiso  ? C
   C41        1.0     0.257135     0.943406     0.051649    Uiso  ? C
   C42        1.0     0.455500     0.716213     0.059624    Uiso  ? C
   C43        1.0     0.556497     0.884531     0.063174    Uiso  ? C
   C44        1.0     0.457062     0.943021     0.059130    Uiso  ? C
   C45        1.0     0.756137     0.885835     0.062772    Uiso  ? C
   C46        1.0     0.656261     0.943296     0.064057    Uiso  ? C
   C47        1.0     0.857549     0.722371     0.054624    Uiso  ? C
   C48        1.0     0.956819     0.777703     0.049727    Uiso  ? C
   C49        1.0     0.956151     0.888491     0.052221    Uiso  ? C
   C50        1.0     0.855551     0.943051     0.056843    Uiso  ? C
   C51        1.0     0.758504     0.556520     0.057621    Uiso  ? C
   C52        1.0     0.554709     0.773651     0.064656    Uiso  ? C
   C53        1.0     0.758412     0.774256     0.065025    Uiso  ? C
   C54        1.0     0.451530     0.603775     0.061335    Uiso  ? C
   N1         1.0     0.448536     0.391586     0.057107    Uiso  ? N
   N2         1.0     0.663604     0.390057     0.068342    Uiso  ? N
   Fe1        1.0     0.654104     0.666881     0.092361    Uiso  ? Fe
   Ni1        1.0     0.553149     0.496227     0.080782    Uiso  ? Ni
   O1         1.0     0.619234     0.573437     0.148283    Uiso  ? O
