
#======================================================================
# CRYSTAL DATA
#----------------------------------------------------------------------
data_VESTA_phase_1

_chemical_name_common                  'CONTCAR\(5)                           '
_cell_length_a                         12.331300
_cell_length_b                         12.829200
_cell_length_c                         19.994400
_cell_angle_alpha                      89.996696
_cell_angle_beta                       89.998299
_cell_angle_gamma                      89.999496
_cell_volume                           3163.128245
_space_group_name_H-M_alt              'P 1'
_space_group_IT_number                 1

loop_
_space_group_symop_operation_xyz
   'x, y, z'

loop_
   _atom_site_label
   _atom_site_occupancy
   _atom_site_fract_x
   _atom_site_fract_y
   _atom_site_fract_z
   _atom_site_adp_type
   _atom_site_U_iso_or_equiv
   _atom_site_type_symbol
   C1         1.0     0.057020     0.054300     0.049565    Uiso  ? C
   C2         1.0     0.157046     0.109698     0.049467    Uiso  ? C
   C3         1.0     0.156829     0.220625     0.048347    Uiso  ? C
   C4         1.0     0.057315     0.276197     0.047296    Uiso  ? C
   C5         1.0     0.257635     0.055223     0.051023    Uiso  ? C
   C6         1.0     0.357648     0.111931     0.053314    Uiso  ? C
   C7         1.0     0.357260     0.223882     0.052677    Uiso  ? C
   C8         1.0     0.256160     0.276658     0.049211    Uiso  ? C
   C9         1.0     0.457335     0.056827     0.056634    Uiso  ? C
   C10        1.0     0.556665     0.115054     0.058830    Uiso  ? C
   C11        1.0     0.556890     0.227814     0.059010    Uiso  ? C
   C12        1.0     0.455635     0.283785     0.055766    Uiso  ? C
   C13        1.0     0.656263     0.055924     0.059171    Uiso  ? C
   C14        1.0     0.756706     0.111040     0.055860    Uiso  ? C
   C15        1.0     0.757930     0.222507     0.055249    Uiso  ? C
   C16        1.0     0.659864     0.282445     0.059443    Uiso  ? C
   C17        1.0     0.856316     0.054719     0.053181    Uiso  ? C
   C18        1.0     0.956923     0.109641     0.050458    Uiso  ? C
   C19        1.0     0.957686     0.220455     0.049273    Uiso  ? C
   C20        1.0     0.858258     0.276331     0.051278    Uiso  ? C
   C21        1.0     0.057415     0.387511     0.045628    Uiso  ? C
   C22        1.0     0.155787     0.443542     0.045496    Uiso  ? C
   C23        1.0     0.155734     0.554949     0.045150    Uiso  ? C
   C24        1.0     0.056316     0.610233     0.045254    Uiso  ? C
   C25        1.0     0.254858     0.387164     0.047794    Uiso  ? C
   C26        1.0     0.353460     0.441839     0.050650    Uiso  ? C
   C27        1.0     0.355115     0.554288     0.051447    Uiso  ? C
   C28        1.0     0.255590     0.610342     0.047337    Uiso  ? C
   C29        1.0     0.760742     0.442490     0.055233    Uiso  ? C
   C30        1.0     0.859558     0.387048     0.049909    Uiso  ? C
   C31        1.0     0.957971     0.443254     0.046238    Uiso  ? C
   C32        1.0     0.956762     0.553935     0.046079    Uiso  ? C
   C33        1.0     0.855522     0.607758     0.049292    Uiso  ? C
   C34        1.0     0.056808     0.721764     0.046416    Uiso  ? C
   C35        1.0     0.156382     0.777011     0.047410    Uiso  ? C
   C36        1.0     0.156931     0.888364     0.048789    Uiso  ? C
   C37        1.0     0.056795     0.943353     0.049292    Uiso  ? C
   C38        1.0     0.256409     0.721182     0.048542    Uiso  ? C
   C39        1.0     0.356499     0.775868     0.052823    Uiso  ? C
   C40        1.0     0.357355     0.887973     0.053611    Uiso  ? C
   C41        1.0     0.257318     0.943837     0.050778    Uiso  ? C
   C42        1.0     0.455922     0.717748     0.059144    Uiso  ? C
   C43        1.0     0.556008     0.886814     0.062677    Uiso  ? C
   C44        1.0     0.456734     0.944458     0.057564    Uiso  ? C
   C45        1.0     0.755984     0.887022     0.058478    Uiso  ? C
   C46        1.0     0.656273     0.944434     0.061313    Uiso  ? C
   C47        1.0     0.856899     0.721479     0.051286    Uiso  ? C
   C48        1.0     0.956701     0.777083     0.048733    Uiso  ? C
   C49        1.0     0.956381     0.888067     0.050365    Uiso  ? C
   C50        1.0     0.856055     0.943226     0.053691    Uiso  ? C
   C51        1.0     0.756137     0.553586     0.054638    Uiso  ? C
   C52        1.0     0.553150     0.777161     0.067070    Uiso  ? C
   C53        1.0     0.758295     0.775992     0.059089    Uiso  ? C
   C54        1.0     0.454994     0.605078     0.059337    Uiso  ? C
   N1         1.0     0.450504     0.392025     0.054567    Uiso  ? N
   N2         1.0     0.665285     0.388030     0.062112    Uiso  ? N
   Fe1        1.0     0.656947     0.673009     0.090064    Uiso  ? Fe
   Ni1        1.0     0.561213     0.495105     0.072277    Uiso  ? Ni
   O1         1.0     0.589468     0.531447     0.167277    Uiso  ? O
   O2         1.0     0.614821     0.634678     0.176104    Uiso  ? O
