
#======================================================================
# CRYSTAL DATA
#----------------------------------------------------------------------
data_VESTA_phase_1

_chemical_name_common                  'CONTCAR\(2)                           '
_cell_length_a                         12.331300
_cell_length_b                         12.829200
_cell_length_c                         19.994400
_cell_angle_alpha                      89.996696
_cell_angle_beta                       89.998299
_cell_angle_gamma                      89.999496
_cell_volume                           3163.128245
_space_group_name_H-M_alt              'P 1'
_space_group_IT_number                 1

loop_
_space_group_symop_operation_xyz
   'x, y, z'

loop_
   _atom_site_label
   _atom_site_occupancy
   _atom_site_fract_x
   _atom_site_fract_y
   _atom_site_fract_z
   _atom_site_adp_type
   _atom_site_U_iso_or_equiv
   _atom_site_type_symbol
   C1         1.0     0.055509     0.054088     0.051340    Uiso  ? C
   C2         1.0     0.156013     0.109788     0.052211    Uiso  ? C
   C3         1.0     0.156187     0.220504     0.050705    Uiso  ? C
   C4         1.0     0.056347     0.275722     0.048911    Uiso  ? C
   C5         1.0     0.256655     0.055741     0.055232    Uiso  ? C
   C6         1.0     0.356925     0.111905     0.058169    Uiso  ? C
   C7         1.0     0.356688     0.223725     0.057018    Uiso  ? C
   C8         1.0     0.255707     0.276600     0.052397    Uiso  ? C
   C9         1.0     0.457196     0.056908     0.061857    Uiso  ? C
   C10        1.0     0.556652     0.115131     0.063097    Uiso  ? C
   C11        1.0     0.557514     0.229550     0.063515    Uiso  ? C
   C12        1.0     0.454993     0.284291     0.060564    Uiso  ? C
   C13        1.0     0.654710     0.054261     0.061670    Uiso  ? C
   C14        1.0     0.754648     0.110616     0.057817    Uiso  ? C
   C15        1.0     0.756105     0.223456     0.057956    Uiso  ? C
   C16        1.0     0.659606     0.285514     0.063397    Uiso  ? C
   C17        1.0     0.854401     0.053622     0.054161    Uiso  ? C
   C18        1.0     0.955109     0.109025     0.051874    Uiso  ? C
   C19        1.0     0.956182     0.220475     0.050846    Uiso  ? C
   C20        1.0     0.857025     0.276962     0.053048    Uiso  ? C
   C21        1.0     0.057425     0.386735     0.047005    Uiso  ? C
   C22        1.0     0.155885     0.443471     0.047738    Uiso  ? C
   C23        1.0     0.156506     0.554590     0.047690    Uiso  ? C
   C24        1.0     0.057836     0.610339     0.046037    Uiso  ? C
   C25        1.0     0.254793     0.387504     0.050954    Uiso  ? C
   C26        1.0     0.352952     0.442515     0.055618    Uiso  ? C
   C27        1.0     0.354630     0.555212     0.058168    Uiso  ? C
   C28        1.0     0.255562     0.610439     0.052393    Uiso  ? C
   C29        1.0     0.762114     0.446359     0.056579    Uiso  ? C
   C30        1.0     0.859456     0.388133     0.050667    Uiso  ? C
   C31        1.0     0.958811     0.442505     0.046762    Uiso  ? C
   C32        1.0     0.959408     0.553200     0.046029    Uiso  ? C
   C33        1.0     0.860210     0.606610     0.048431    Uiso  ? C
   C34        1.0     0.057119     0.721426     0.047379    Uiso  ? C
   C35        1.0     0.156051     0.777452     0.050565    Uiso  ? C
   C36        1.0     0.155830     0.888516     0.051937    Uiso  ? C
   C37        1.0     0.055280     0.943118     0.050723    Uiso  ? C
   C38        1.0     0.255408     0.721579     0.053886    Uiso  ? C
   C39        1.0     0.354167     0.777309     0.059731    Uiso  ? C
   C40        1.0     0.355276     0.889034     0.059775    Uiso  ? C
   C41        1.0     0.255877     0.944417     0.055517    Uiso  ? C
   C42        1.0     0.452351     0.720505     0.067305    Uiso  ? C
   C43        1.0     0.553584     0.884480     0.066605    Uiso  ? C
   C44        1.0     0.455716     0.944210     0.063338    Uiso  ? C
   C45        1.0     0.754175     0.882719     0.056374    Uiso  ? C
   C46        1.0     0.654187     0.940553     0.062240    Uiso  ? C
   C47        1.0     0.858204     0.718927     0.048648    Uiso  ? C
   C48        1.0     0.956965     0.775878     0.047914    Uiso  ? C
   C49        1.0     0.955138     0.887143     0.050026    Uiso  ? C
   C50        1.0     0.854014     0.941359     0.053199    Uiso  ? C
   C51        1.0     0.454046     0.608178     0.068531    Uiso  ? C
   C52        1.0     0.757453     0.770906     0.053179    Uiso  ? C
   N1         1.0     0.449766     0.391695     0.060184    Uiso  ? N
   N2         1.0     0.666303     0.394589     0.067202    Uiso  ? N
   N3         1.0     0.763450     0.554495     0.053606    Uiso  ? N
   N4         1.0     0.549365     0.776413     0.071704    Uiso  ? N
   Fe1        1.0     0.649480     0.666228     0.069211    Uiso  ? Fe
   Ni1        1.0     0.556814     0.497819     0.079321    Uiso  ? Ni
   H1         1.0     0.611713     0.572245     0.128144    Uiso  ? H
