
#======================================================================
# CRYSTAL DATA
#----------------------------------------------------------------------
data_VESTA_phase_1

_chemical_name_common                  'CONTCAR\(2)                           '
_cell_length_a                         12.331300
_cell_length_b                         12.829200
_cell_length_c                         19.994400
_cell_angle_alpha                      89.996696
_cell_angle_beta                       89.998299
_cell_angle_gamma                      89.999496
_cell_volume                           3163.128245
_space_group_name_H-M_alt              'P 1'
_space_group_IT_number                 1

loop_
_space_group_symop_operation_xyz
   'x, y, z'

loop_
   _atom_site_label
   _atom_site_occupancy
   _atom_site_fract_x
   _atom_site_fract_y
   _atom_site_fract_z
   _atom_site_adp_type
   _atom_site_U_iso_or_equiv
   _atom_site_type_symbol
   C1         1.0     0.055300     0.054627     0.049227    Uiso  ? C
   C2         1.0     0.155934     0.110363     0.050579    Uiso  ? C
   C3         1.0     0.155949     0.221075     0.048875    Uiso  ? C
   C4         1.0     0.055968     0.276391     0.046374    Uiso  ? C
   C5         1.0     0.256560     0.056299     0.054188    Uiso  ? C
   C6         1.0     0.356762     0.112764     0.058014    Uiso  ? C
   C7         1.0     0.356497     0.224699     0.056839    Uiso  ? C
   C8         1.0     0.255414     0.277268     0.051053    Uiso  ? C
   C9         1.0     0.456821     0.057402     0.062525    Uiso  ? C
   C10        1.0     0.556266     0.115652     0.063803    Uiso  ? C
   C11        1.0     0.557192     0.230019     0.064326    Uiso  ? C
   C12        1.0     0.455019     0.285373     0.061643    Uiso  ? C
   C13        1.0     0.654326     0.054890     0.061706    Uiso  ? C
   C14        1.0     0.754340     0.111117     0.056770    Uiso  ? C
   C15        1.0     0.755805     0.223610     0.056723    Uiso  ? C
   C16        1.0     0.659492     0.285546     0.063125    Uiso  ? C
   C17        1.0     0.854231     0.054386     0.052351    Uiso  ? C
   C18        1.0     0.954921     0.109723     0.049875    Uiso  ? C
   C19        1.0     0.955851     0.221126     0.048689    Uiso  ? C
   C20        1.0     0.856560     0.277428     0.051055    Uiso  ? C
   C21        1.0     0.056638     0.387325     0.043576    Uiso  ? C
   C22        1.0     0.155392     0.444090     0.044333    Uiso  ? C
   C23        1.0     0.155730     0.555192     0.043947    Uiso  ? C
   C24        1.0     0.056884     0.610957     0.041585    Uiso  ? C
   C25        1.0     0.254278     0.388155     0.048848    Uiso  ? C
   C26        1.0     0.352129     0.443473     0.055317    Uiso  ? C
   C27        1.0     0.353325     0.555693     0.058003    Uiso  ? C
   C28        1.0     0.254782     0.611020     0.049867    Uiso  ? C
   C29        1.0     0.760427     0.446435     0.054194    Uiso  ? C
   C30        1.0     0.858403     0.388431     0.048072    Uiso  ? C
   C31        1.0     0.957716     0.442983     0.043041    Uiso  ? C
   C32        1.0     0.958043     0.553863     0.041413    Uiso  ? C
   C33        1.0     0.858401     0.606851     0.043377    Uiso  ? C
   C34        1.0     0.056626     0.721981     0.043155    Uiso  ? C
   C35        1.0     0.155818     0.778038     0.047394    Uiso  ? C
   C36        1.0     0.155667     0.889014     0.049446    Uiso  ? C
   C37        1.0     0.055067     0.943744     0.048042    Uiso  ? C
   C38        1.0     0.255149     0.722133     0.051584    Uiso  ? C
   C39        1.0     0.354139     0.777361     0.059025    Uiso  ? C
   C40        1.0     0.355138     0.889116     0.059326    Uiso  ? C
   C41        1.0     0.255823     0.944766     0.054168    Uiso  ? C
   C42        1.0     0.452365     0.720236     0.069211    Uiso  ? C
   C43        1.0     0.553267     0.884972     0.068050    Uiso  ? C
   C44        1.0     0.455430     0.944760     0.064157    Uiso  ? C
   C45        1.0     0.753983     0.884075     0.054773    Uiso  ? C
   C46        1.0     0.653802     0.941284     0.062549    Uiso  ? C
   C47        1.0     0.857176     0.719689     0.043732    Uiso  ? C
   C48        1.0     0.956419     0.776467     0.043547    Uiso  ? C
   C49        1.0     0.954736     0.887763     0.046766    Uiso  ? C
   C50        1.0     0.853856     0.942385     0.050737    Uiso  ? C
   C51        1.0     0.452241     0.607541     0.071642    Uiso  ? C
   C52        1.0     0.757378     0.773028     0.050596    Uiso  ? C
   N1         1.0     0.449175     0.393099     0.062567    Uiso  ? N
   N2         1.0     0.665452     0.394135     0.066484    Uiso  ? N
   N3         1.0     0.761486     0.554193     0.048967    Uiso  ? N
   N4         1.0     0.549192     0.776781     0.074135    Uiso  ? N
   Fe1        1.0     0.654335     0.669560     0.073079    Uiso  ? Fe
   Ni1        1.0     0.553530     0.495010     0.087008    Uiso  ? Ni
   O1         1.0     0.627319     0.581365     0.151144    Uiso  ? O
   H1         1.0     0.569422     0.610990     0.178483    Uiso  ? H
