
#======================================================================
# CRYSTAL DATA
#----------------------------------------------------------------------
data_VESTA_phase_1

_chemical_name_common                  'CONTCAR\(2)                           '
_cell_length_a                         12.331300
_cell_length_b                         12.829200
_cell_length_c                         19.994400
_cell_angle_alpha                      89.996696
_cell_angle_beta                       89.998299
_cell_angle_gamma                      89.999496
_cell_volume                           3163.128245
_space_group_name_H-M_alt              'P 1'
_space_group_IT_number                 1

loop_
_space_group_symop_operation_xyz
   'x, y, z'

loop_
   _atom_site_label
   _atom_site_occupancy
   _atom_site_fract_x
   _atom_site_fract_y
   _atom_site_fract_z
   _atom_site_adp_type
   _atom_site_U_iso_or_equiv
   _atom_site_type_symbol
   C1         1.0     0.055383     0.053850     0.051936    Uiso  ? C
   C2         1.0     0.155883     0.109472     0.053099    Uiso  ? C
   C3         1.0     0.156058     0.220196     0.051657    Uiso  ? C
   C4         1.0     0.056221     0.275455     0.049014    Uiso  ? C
   C5         1.0     0.256646     0.055469     0.055886    Uiso  ? C
   C6         1.0     0.356948     0.111732     0.059513    Uiso  ? C
   C7         1.0     0.356748     0.223771     0.058905    Uiso  ? C
   C8         1.0     0.255566     0.276287     0.053613    Uiso  ? C
   C9         1.0     0.457131     0.056535     0.063198    Uiso  ? C
   C10        1.0     0.556567     0.114817     0.064861    Uiso  ? C
   C11        1.0     0.557482     0.229490     0.065501    Uiso  ? C
   C12        1.0     0.455083     0.284506     0.063408    Uiso  ? C
   C13        1.0     0.654674     0.054006     0.063383    Uiso  ? C
   C14        1.0     0.754589     0.110304     0.059126    Uiso  ? C
   C15        1.0     0.756068     0.223188     0.058325    Uiso  ? C
   C16        1.0     0.659677     0.285411     0.063789    Uiso  ? C
   C17        1.0     0.854376     0.053435     0.055308    Uiso  ? C
   C18        1.0     0.954979     0.108900     0.052670    Uiso  ? C
   C19        1.0     0.956066     0.220284     0.051195    Uiso  ? C
   C20        1.0     0.856797     0.276778     0.052814    Uiso  ? C
   C21        1.0     0.057123     0.386420     0.045755    Uiso  ? C
   C22        1.0     0.155630     0.443025     0.046270    Uiso  ? C
   C23        1.0     0.156078     0.554223     0.045243    Uiso  ? C
   C24        1.0     0.057308     0.609973     0.043025    Uiso  ? C
   C25        1.0     0.254484     0.387069     0.050994    Uiso  ? C
   C26        1.0     0.352412     0.442288     0.056571    Uiso  ? C
   C27        1.0     0.353685     0.554752     0.057001    Uiso  ? C
   C28        1.0     0.254950     0.610105     0.049936    Uiso  ? C
   C29        1.0     0.760910     0.446095     0.053741    Uiso  ? C
   C30        1.0     0.858913     0.387860     0.049047    Uiso  ? C
   C31        1.0     0.958258     0.442131     0.044432    Uiso  ? C
   C32        1.0     0.958872     0.552860     0.042619    Uiso  ? C
   C33        1.0     0.859221     0.606035     0.043947    Uiso  ? C
   C34        1.0     0.056905     0.721161     0.044524    Uiso  ? C
   C35        1.0     0.155859     0.777194     0.048226    Uiso  ? C
   C36        1.0     0.155765     0.888317     0.050778    Uiso  ? C
   C37        1.0     0.055104     0.942865     0.050478    Uiso  ? C
   C38        1.0     0.255217     0.721326     0.051404    Uiso  ? C
   C39        1.0     0.354082     0.776781     0.057831    Uiso  ? C
   C40        1.0     0.355338     0.888490     0.058817    Uiso  ? C
   C41        1.0     0.255771     0.944096     0.054993    Uiso  ? C
   C42        1.0     0.452629     0.719907     0.065606    Uiso  ? C
   C43        1.0     0.553437     0.883595     0.066892    Uiso  ? C
   C44        1.0     0.455631     0.943648     0.063557    Uiso  ? C
   C45        1.0     0.754385     0.882599     0.058666    Uiso  ? C
   C46        1.0     0.654309     0.940004     0.064165    Uiso  ? C
   C47        1.0     0.857893     0.718686     0.046279    Uiso  ? C
   C48        1.0     0.956687     0.775540     0.045774    Uiso  ? C
   C49        1.0     0.954977     0.886869     0.049723    Uiso  ? C
   C50        1.0     0.854035     0.941190     0.054261    Uiso  ? C
   C51        1.0     0.452679     0.607183     0.067830    Uiso  ? C
   C52        1.0     0.757778     0.770572     0.054991    Uiso  ? C
   N1         1.0     0.449351     0.392369     0.064426    Uiso  ? N
   N2         1.0     0.665740     0.394325     0.065695    Uiso  ? N
   N3         1.0     0.762737     0.554044     0.047562    Uiso  ? N
   N4         1.0     0.549210     0.775245     0.069483    Uiso  ? N
   Fe1        1.0     0.651790     0.666447     0.071271    Uiso  ? Fe
   Ni1        1.0     0.553846     0.498045     0.086641    Uiso  ? Ni
   O1         1.0     0.625546     0.589469     0.140445    Uiso  ? O
