
#======================================================================
# CRYSTAL DATA
#----------------------------------------------------------------------
data_VESTA_phase_1

_chemical_name_common                  'CONTCAR\(2)                           '
_cell_length_a                         12.331300
_cell_length_b                         12.829200
_cell_length_c                         19.994400
_cell_angle_alpha                      89.996696
_cell_angle_beta                       89.998299
_cell_angle_gamma                      89.999496
_cell_volume                           3163.128245
_space_group_name_H-M_alt              'P 1'
_space_group_IT_number                 1

loop_
_space_group_symop_operation_xyz
   'x, y, z'

loop_
   _atom_site_label
   _atom_site_occupancy
   _atom_site_fract_x
   _atom_site_fract_y
   _atom_site_fract_z
   _atom_site_adp_type
   _atom_site_U_iso_or_equiv
   _atom_site_type_symbol
   C1         1.0     0.054459     0.053313     0.051951    Uiso  ? C
   C2         1.0     0.154917     0.108981     0.052076    Uiso  ? C
   C3         1.0     0.155162     0.219683     0.050747    Uiso  ? C
   C4         1.0     0.055389     0.274920     0.049767    Uiso  ? C
   C5         1.0     0.255629     0.054910     0.053898    Uiso  ? C
   C6         1.0     0.355932     0.111043     0.056463    Uiso  ? C
   C7         1.0     0.355723     0.222853     0.055539    Uiso  ? C
   C8         1.0     0.254744     0.275789     0.051550    Uiso  ? C
   C9         1.0     0.456191     0.056025     0.059717    Uiso  ? C
   C10        1.0     0.555716     0.114255     0.061898    Uiso  ? C
   C11        1.0     0.556565     0.228657     0.062486    Uiso  ? C
   C12        1.0     0.454062     0.283333     0.058684    Uiso  ? C
   C13        1.0     0.653863     0.053347     0.061742    Uiso  ? C
   C14        1.0     0.753828     0.109739     0.059032    Uiso  ? C
   C15        1.0     0.755339     0.222651     0.059317    Uiso  ? C
   C16        1.0     0.658765     0.284752     0.063751    Uiso  ? C
   C17        1.0     0.853463     0.052618     0.055749    Uiso  ? C
   C18        1.0     0.954097     0.108220     0.053219    Uiso  ? C
   C19        1.0     0.955252     0.219682     0.052337    Uiso  ? C
   C20        1.0     0.856177     0.276307     0.054946    Uiso  ? C
   C21        1.0     0.056602     0.385938     0.047756    Uiso  ? C
   C22        1.0     0.155037     0.442632     0.047068    Uiso  ? C
   C23        1.0     0.155630     0.553748     0.046370    Uiso  ? C
   C24        1.0     0.056829     0.609478     0.046165    Uiso  ? C
   C25        1.0     0.253982     0.386658     0.049606    Uiso  ? C
   C26        1.0     0.352390     0.441606     0.052706    Uiso  ? C
   C27        1.0     0.354276     0.554570     0.053809    Uiso  ? C
   C28        1.0     0.254771     0.609693     0.049157    Uiso  ? C
   C29        1.0     0.761470     0.445928     0.059114    Uiso  ? C
   C30        1.0     0.858756     0.387536     0.053136    Uiso  ? C
   C31        1.0     0.958053     0.441759     0.048678    Uiso  ? C
   C32        1.0     0.958485     0.552345     0.048024    Uiso  ? C
   C33        1.0     0.859370     0.605887     0.051872    Uiso  ? C
   C34        1.0     0.056081     0.720532     0.047183    Uiso  ? C
   C35        1.0     0.154929     0.776664     0.048764    Uiso  ? C
   C36        1.0     0.154707     0.887748     0.050617    Uiso  ? C
   C37        1.0     0.054124     0.942299     0.051050    Uiso  ? C
   C38        1.0     0.254364     0.720804     0.050353    Uiso  ? C
   C39        1.0     0.353135     0.776715     0.055014    Uiso  ? C
   C40        1.0     0.354269     0.888331     0.056044    Uiso  ? C
   C41        1.0     0.254738     0.943683     0.053270    Uiso  ? C
   C42        1.0     0.451344     0.719980     0.061053    Uiso  ? C
   C43        1.0     0.552479     0.883552     0.063617    Uiso  ? C
   C44        1.0     0.454626     0.943378     0.060104    Uiso  ? C
   C45        1.0     0.753302     0.881384     0.059032    Uiso  ? C
   C46        1.0     0.653474     0.939527     0.062321    Uiso  ? C
   C47        1.0     0.857591     0.717846     0.052034    Uiso  ? C
   C48        1.0     0.955872     0.774900     0.049398    Uiso  ? C
   C49        1.0     0.954151     0.886214     0.051548    Uiso  ? C
   C50        1.0     0.852985     0.940200     0.055261    Uiso  ? C
   C51        1.0     0.453910     0.607805     0.062072    Uiso  ? C
   C52        1.0     0.756274     0.768665     0.058039    Uiso  ? C
   N1         1.0     0.449078     0.390692     0.057150    Uiso  ? N
   N2         1.0     0.665439     0.393714     0.067705    Uiso  ? N
   N3         1.0     0.762435     0.554396     0.057318    Uiso  ? N
   N4         1.0     0.548304     0.775538     0.065977    Uiso  ? N
   Fe1        1.0     0.646628     0.666267     0.070787    Uiso  ? Fe
   Ni1        1.0     0.556262     0.497861     0.074508    Uiso  ? Ni
   H1         1.0     0.679502     0.683401     0.140719    Uiso  ? H
   H2         1.0     0.607602     0.574988     0.125691    Uiso  ? H
