
#======================================================================
# CRYSTAL DATA
#----------------------------------------------------------------------
data_VESTA_phase_1

_chemical_name_common                  'CONTCAR\(2)                           '
_cell_length_a                         12.331300
_cell_length_b                         12.829200
_cell_length_c                         19.994400
_cell_angle_alpha                      89.996696
_cell_angle_beta                       89.998299
_cell_angle_gamma                      89.999496
_cell_volume                           3163.128245
_space_group_name_H-M_alt              'P 1'
_space_group_IT_number                 1

loop_
_space_group_symop_operation_xyz
   'x, y, z'

loop_
   _atom_site_label
   _atom_site_occupancy
   _atom_site_fract_x
   _atom_site_fract_y
   _atom_site_fract_z
   _atom_site_adp_type
   _atom_site_U_iso_or_equiv
   _atom_site_type_symbol
   C1         1.0     0.054964     0.052271     0.045358    Uiso  ? C
   C2         1.0     0.155496     0.107660     0.045056    Uiso  ? C
   C3         1.0     0.155379     0.218476     0.043391    Uiso  ? C
   C4         1.0     0.055473     0.274010     0.043695    Uiso  ? C
   C5         1.0     0.256422     0.053363     0.047473    Uiso  ? C
   C6         1.0     0.356651     0.109764     0.051161    Uiso  ? C
   C7         1.0     0.356321     0.221989     0.049031    Uiso  ? C
   C8         1.0     0.255028     0.274484     0.043422    Uiso  ? C
   C9         1.0     0.456527     0.054484     0.056987    Uiso  ? C
   C10        1.0     0.555657     0.113221     0.060974    Uiso  ? C
   C11        1.0     0.556388     0.227467     0.061175    Uiso  ? C
   C12        1.0     0.454641     0.282634     0.053616    Uiso  ? C
   C13        1.0     0.653952     0.052552     0.062030    Uiso  ? C
   C14        1.0     0.754213     0.108728     0.058047    Uiso  ? C
   C15        1.0     0.755709     0.221311     0.059198    Uiso  ? C
   C16        1.0     0.659045     0.283030     0.064928    Uiso  ? C
   C17        1.0     0.854180     0.052632     0.052337    Uiso  ? C
   C18        1.0     0.954773     0.107718     0.048317    Uiso  ? C
   C19        1.0     0.955576     0.218919     0.048315    Uiso  ? C
   C20        1.0     0.856326     0.275137     0.053776    Uiso  ? C
   C21        1.0     0.055745     0.385127     0.041141    Uiso  ? C
   C22        1.0     0.154278     0.441481     0.038148    Uiso  ? C
   C23        1.0     0.154267     0.552741     0.036792    Uiso  ? C
   C24        1.0     0.055104     0.608378     0.037785    Uiso  ? C
   C25        1.0     0.253545     0.385229     0.040429    Uiso  ? C
   C26        1.0     0.351699     0.440471     0.044103    Uiso  ? C
   C27        1.0     0.352405     0.553119     0.046792    Uiso  ? C
   C28        1.0     0.253597     0.608580     0.039998    Uiso  ? C
   C29        1.0     0.760706     0.444002     0.062551    Uiso  ? C
   C30        1.0     0.858092     0.386244     0.053036    Uiso  ? C
   C31        1.0     0.956801     0.440895     0.044848    Uiso  ? C
   C32        1.0     0.956441     0.551591     0.042913    Uiso  ? C
   C33        1.0     0.856493     0.604588     0.050392    Uiso  ? C
   C34        1.0     0.055686     0.719712     0.038426    Uiso  ? C
   C35        1.0     0.155320     0.775454     0.040179    Uiso  ? C
   C36        1.0     0.155330     0.886444     0.042940    Uiso  ? C
   C37        1.0     0.054678     0.941167     0.043718    Uiso  ? C
   C38        1.0     0.255061     0.719462     0.042623    Uiso  ? C
   C39        1.0     0.354813     0.773937     0.050845    Uiso  ? C
   C40        1.0     0.355295     0.885983     0.052107    Uiso  ? C
   C41        1.0     0.255731     0.941889     0.047054    Uiso  ? C
   C42        1.0     0.453385     0.716587     0.061355    Uiso  ? C
   C43        1.0     0.552680     0.881220     0.065872    Uiso  ? C
   C44        1.0     0.455237     0.941447     0.058428    Uiso  ? C
   C45        1.0     0.754827     0.883699     0.058578    Uiso  ? C
   C46        1.0     0.653771     0.939091     0.064119    Uiso  ? C
   C47        1.0     0.856740     0.717666     0.048514    Uiso  ? C
   C48        1.0     0.955589     0.774184     0.041947    Uiso  ? C
   C49        1.0     0.954425     0.885568     0.044757    Uiso  ? C
   C50        1.0     0.854077     0.940930     0.050903    Uiso  ? C
   C51        1.0     0.450867     0.603685     0.061363    Uiso  ? C
   C52        1.0     0.760307     0.773028     0.061138    Uiso  ? C
   N1         1.0     0.449245     0.390785     0.050258    Uiso  ? N
   N2         1.0     0.664966     0.390887     0.071287    Uiso  ? N
   N3         1.0     0.761146     0.552288     0.061575    Uiso  ? N
   N4         1.0     0.548917     0.773080     0.071764    Uiso  ? N
   Fe1        1.0     0.665830     0.681793     0.104636    Uiso  ? Fe
   Ni1        1.0     0.549275     0.492194     0.080951    Uiso  ? Ni
   O1         1.0     0.596850     0.567399     0.156759    Uiso  ? O
   O2         1.0     0.739097     0.718107     0.182927    Uiso  ? O
   H1         1.0     0.720010     0.663194     0.214734    Uiso  ? H
   H2         1.0     0.531163     0.592785     0.178557    Uiso  ? H
