
#======================================================================
# CRYSTAL DATA
#----------------------------------------------------------------------
data_VESTA_phase_1

_chemical_name_common                  'CONTCAR\(2)                           '
_cell_length_a                         12.331300
_cell_length_b                         12.829200
_cell_length_c                         19.994400
_cell_angle_alpha                      89.996696
_cell_angle_beta                       89.998299
_cell_angle_gamma                      89.999496
_cell_volume                           3163.128245
_space_group_name_H-M_alt              'P 1'
_space_group_IT_number                 1

loop_
_space_group_symop_operation_xyz
   'x, y, z'

loop_
   _atom_site_label
   _atom_site_occupancy
   _atom_site_fract_x
   _atom_site_fract_y
   _atom_site_fract_z
   _atom_site_adp_type
   _atom_site_U_iso_or_equiv
   _atom_site_type_symbol
   C1         1.0     0.055083     0.053936     0.049301    Uiso  ? C
   C2         1.0     0.155579     0.109777     0.049766    Uiso  ? C
   C3         1.0     0.155965     0.220564     0.048585    Uiso  ? C
   C4         1.0     0.056080     0.275706     0.047620    Uiso  ? C
   C5         1.0     0.256285     0.055715     0.052067    Uiso  ? C
   C6         1.0     0.356594     0.112099     0.054986    Uiso  ? C
   C7         1.0     0.356667     0.224090     0.054011    Uiso  ? C
   C8         1.0     0.255621     0.276831     0.049752    Uiso  ? C
   C9         1.0     0.456534     0.056839     0.058738    Uiso  ? C
   C10        1.0     0.556164     0.114681     0.060815    Uiso  ? C
   C11        1.0     0.557172     0.228783     0.061553    Uiso  ? C
   C12        1.0     0.455318     0.284319     0.057719    Uiso  ? C
   C13        1.0     0.654363     0.054096     0.060162    Uiso  ? C
   C14        1.0     0.754489     0.110005     0.056851    Uiso  ? C
   C15        1.0     0.756195     0.222554     0.057265    Uiso  ? C
   C16        1.0     0.659623     0.283970     0.062583    Uiso  ? C
   C17        1.0     0.854148     0.053274     0.053086    Uiso  ? C
   C18        1.0     0.954787     0.108923     0.050514    Uiso  ? C
   C19        1.0     0.955990     0.220323     0.049974    Uiso  ? C
   C20        1.0     0.856730     0.276656     0.052795    Uiso  ? C
   C21        1.0     0.056942     0.386761     0.045813    Uiso  ? C
   C22        1.0     0.155616     0.443433     0.045804    Uiso  ? C
   C23        1.0     0.156069     0.554547     0.045390    Uiso  ? C
   C24        1.0     0.056892     0.610029     0.044332    Uiso  ? C
   C25        1.0     0.254837     0.387696     0.048400    Uiso  ? C
   C26        1.0     0.353267     0.443011     0.052415    Uiso  ? C
   C27        1.0     0.355327     0.555677     0.055048    Uiso  ? C
   C28        1.0     0.255450     0.610466     0.049042    Uiso  ? C
   C29        1.0     0.760762     0.445799     0.057180    Uiso  ? C
   C30        1.0     0.858652     0.387778     0.050937    Uiso  ? C
   C31        1.0     0.957950     0.442295     0.046331    Uiso  ? C
   C32        1.0     0.957997     0.552977     0.045354    Uiso  ? C
   C33        1.0     0.858139     0.605911     0.048252    Uiso  ? C
   C34        1.0     0.056347     0.721039     0.045052    Uiso  ? C
   C35        1.0     0.155313     0.777202     0.047479    Uiso  ? C
   C36        1.0     0.155204     0.888328     0.048802    Uiso  ? C
   C37        1.0     0.054559     0.942817     0.048435    Uiso  ? C
   C38        1.0     0.254802     0.721460     0.050344    Uiso  ? C
   C39        1.0     0.353656     0.777176     0.055578    Uiso  ? C
   C40        1.0     0.354757     0.888855     0.055504    Uiso  ? C
   C41        1.0     0.255220     0.944347     0.051841    Uiso  ? C
   C42        1.0     0.452138     0.720597     0.063218    Uiso  ? C
   C43        1.0     0.552632     0.884674     0.062946    Uiso  ? C
   C44        1.0     0.454818     0.944342     0.059525    Uiso  ? C
   C45        1.0     0.753678     0.882940     0.056907    Uiso  ? C
   C46        1.0     0.653894     0.940536     0.060925    Uiso  ? C
   C47        1.0     0.857267     0.718278     0.048291    Uiso  ? C
   C48        1.0     0.955896     0.775216     0.046165    Uiso  ? C
   C49        1.0     0.954467     0.886717     0.048544    Uiso  ? C
   C50        1.0     0.853595     0.941149     0.052478    Uiso  ? C
   C51        1.0     0.454828     0.608001     0.066583    Uiso  ? C
   C52        1.0     0.756995     0.770694     0.055932    Uiso  ? C
   N1         1.0     0.450299     0.392284     0.056715    Uiso  ? N
   N2         1.0     0.665836     0.391943     0.067210    Uiso  ? N
   N3         1.0     0.760922     0.553969     0.053539    Uiso  ? N
   N4         1.0     0.548378     0.777154     0.065794    Uiso  ? N
   Fe1        1.0     0.650096     0.671446     0.073245    Uiso  ? Fe
   Ni1        1.0     0.555767     0.491462     0.084677    Uiso  ? Ni
   O1         1.0     0.618678     0.544204     0.162062    Uiso  ? O
   O2         1.0     0.654953     0.647557     0.161124    Uiso  ? O
