
#======================================================================
# CRYSTAL DATA
#----------------------------------------------------------------------
data_VESTA_phase_1

_chemical_name_common                  '1h\(2)                                '
_cell_length_a                         12.331300
_cell_length_b                         12.829200
_cell_length_c                         19.994400
_cell_angle_alpha                      89.996696
_cell_angle_beta                       89.998299
_cell_angle_gamma                      89.999496
_cell_volume                           3163.128245
_space_group_name_H-M_alt              'P 1'
_space_group_IT_number                 1

loop_
_space_group_symop_operation_xyz
   'x, y, z'

loop_
   _atom_site_label
   _atom_site_occupancy
   _atom_site_fract_x
   _atom_site_fract_y
   _atom_site_fract_z
   _atom_site_adp_type
   _atom_site_U_iso_or_equiv
   _atom_site_type_symbol
   C1         1.0     0.055493     0.053787     0.054592    Uiso  ? C
   C2         1.0     0.155889     0.109872     0.055525    Uiso  ? C
   C3         1.0     0.156468     0.220686     0.055112    Uiso  ? C
   C4         1.0     0.056708     0.275714     0.053646    Uiso  ? C
   C5         1.0     0.256485     0.055924     0.057073    Uiso  ? C
   C6         1.0     0.356784     0.112246     0.058628    Uiso  ? C
   C7         1.0     0.356890     0.223997     0.058812    Uiso  ? C
   C8         1.0     0.256047     0.277068     0.056578    Uiso  ? C
   C9         1.0     0.456980     0.057222     0.059687    Uiso  ? C
   C10        1.0     0.556698     0.114879     0.059072    Uiso  ? C
   C11        1.0     0.557740     0.228904     0.058945    Uiso  ? C
   C12        1.0     0.455621     0.284209     0.060531    Uiso  ? C
   C13        1.0     0.654817     0.054205     0.057498    Uiso  ? C
   C14        1.0     0.754939     0.110100     0.055509    Uiso  ? C
   C15        1.0     0.756591     0.222642     0.054784    Uiso  ? C
   C16        1.0     0.659722     0.284168     0.056150    Uiso  ? C
   C17        1.0     0.854467     0.052820     0.054512    Uiso  ? C
   C18        1.0     0.955182     0.108539     0.054159    Uiso  ? C
   C19        1.0     0.956623     0.220096     0.053541    Uiso  ? C
   C20        1.0     0.857507     0.276482     0.053228    Uiso  ? C
   C21        1.0     0.058093     0.386813     0.053022    Uiso  ? C
   C22        1.0     0.156623     0.443673     0.053830    Uiso  ? C
   C23        1.0     0.157006     0.554599     0.054072    Uiso  ? C
   C24        1.0     0.057589     0.610003     0.053118    Uiso  ? C
   C25        1.0     0.255813     0.388063     0.055767    Uiso  ? C
   C26        1.0     0.354446     0.443190     0.059181    Uiso  ? C
   C27        1.0     0.357173     0.556113     0.059273    Uiso  ? C
   C28        1.0     0.256682     0.610425     0.056313    Uiso  ? C
   C29        1.0     0.762511     0.445239     0.051793    Uiso  ? C
   C30        1.0     0.860320     0.387623     0.052009    Uiso  ? C
   C31        1.0     0.959489     0.442376     0.052024    Uiso  ? C
   C32        1.0     0.958852     0.552987     0.052082    Uiso  ? C
   C33        1.0     0.858662     0.606012     0.050969    Uiso  ? C
   C34        1.0     0.056657     0.720970     0.053617    Uiso  ? C
   C35        1.0     0.155642     0.777195     0.054958    Uiso  ? C
   C36        1.0     0.155472     0.888276     0.055379    Uiso  ? C
   C37        1.0     0.054909     0.942688     0.054416    Uiso  ? C
   C38        1.0     0.255313     0.721622     0.056444    Uiso  ? C
   C39        1.0     0.353830     0.777922     0.058569    Uiso  ? C
   C40        1.0     0.354937     0.889477     0.058727    Uiso  ? C
   C41        1.0     0.255429     0.944603     0.057095    Uiso  ? C
   C42        1.0     0.452823     0.721852     0.062052    Uiso  ? C
   C43        1.0     0.553231     0.885965     0.060348    Uiso  ? C
   C44        1.0     0.455235     0.945008     0.060069    Uiso  ? C
   C45        1.0     0.753442     0.881658     0.054688    Uiso  ? C
   C46        1.0     0.654153     0.940823     0.057696    Uiso  ? C
   C47        1.0     0.857358     0.717932     0.051932    Uiso  ? C
   C48        1.0     0.956320     0.775023     0.053128    Uiso  ? C
   C49        1.0     0.954824     0.886398     0.053642    Uiso  ? C
   C50        1.0     0.853584     0.940398     0.054058    Uiso  ? C
   C51        1.0     0.458490     0.609669     0.063101    Uiso  ? C
   C52        1.0     0.756163     0.769152     0.052002    Uiso  ? C
   N1         1.0     0.450873     0.391439     0.063048    Uiso  ? N
   N2         1.0     0.666084     0.392726     0.054647    Uiso  ? N
   N3         1.0     0.760964     0.553626     0.049669    Uiso  ? N
   N4         1.0     0.548981     0.778627     0.061772    Uiso  ? N
   Fe1        1.0     0.640645     0.666450     0.051992    Uiso  ? Fe
   Ni1        1.0     0.562942     0.497133     0.065018    Uiso  ? Ni
