
#======================================================================
# CRYSTAL DATA
#----------------------------------------------------------------------
data_VESTA_phase_1

_chemical_name_common                  'CONTCAR                               '
_cell_length_a                         12.331300
_cell_length_b                         12.829200
_cell_length_c                         19.994400
_cell_angle_alpha                      89.996696
_cell_angle_beta                       89.998299
_cell_angle_gamma                      89.999496
_cell_volume                           3163.128245
_space_group_name_H-M_alt              'P 1'
_space_group_IT_number                 1

loop_
_space_group_symop_operation_xyz
   'x, y, z'

loop_
   _atom_site_label
   _atom_site_occupancy
   _atom_site_fract_x
   _atom_site_fract_y
   _atom_site_fract_z
   _atom_site_adp_type
   _atom_site_U_iso_or_equiv
   _atom_site_type_symbol
   C1         1.0     0.055776     0.054963     0.052305    Uiso  ? C
   C2         1.0     0.155864     0.110966     0.052725    Uiso  ? C
   C3         1.0     0.156892     0.221729     0.052241    Uiso  ? C
   C4         1.0     0.056809     0.276316     0.050887    Uiso  ? C
   C5         1.0     0.255904     0.056348     0.054029    Uiso  ? C
   C6         1.0     0.356252     0.111821     0.056631    Uiso  ? C
   C7         1.0     0.357359     0.223348     0.057025    Uiso  ? C
   C8         1.0     0.257080     0.277669     0.053724    Uiso  ? C
   C9         1.0     0.455697     0.055473     0.058948    Uiso  ? C
   C10        1.0     0.556154     0.110845     0.061074    Uiso  ? C
   C11        1.0     0.556910     0.222106     0.062208    Uiso  ? C
   C12        1.0     0.457521     0.280513     0.060609    Uiso  ? C
   C13        1.0     0.655334     0.051870     0.060636    Uiso  ? C
   C14        1.0     0.755598     0.108616     0.057862    Uiso  ? C
   C15        1.0     0.756777     0.220325     0.057579    Uiso  ? C
   C16        1.0     0.657698     0.278256     0.062045    Uiso  ? C
   C17        1.0     0.855190     0.052655     0.055211    Uiso  ? C
   C18        1.0     0.955412     0.109243     0.053133    Uiso  ? C
   C19        1.0     0.956507     0.220453     0.052159    Uiso  ? C
   C20        1.0     0.856848     0.276134     0.053455    Uiso  ? C
   C21        1.0     0.057909     0.387451     0.049618    Uiso  ? C
   C22        1.0     0.157209     0.443674     0.049931    Uiso  ? C
   C23        1.0     0.157517     0.555068     0.049283    Uiso  ? C
   C24        1.0     0.057807     0.610113     0.048498    Uiso  ? C
   C25        1.0     0.257181     0.388701     0.052464    Uiso  ? C
   C26        1.0     0.356583     0.444810     0.055521    Uiso  ? C
   C27        1.0     0.357482     0.558166     0.054626    Uiso  ? C
   C28        1.0     0.256424     0.611911     0.051008    Uiso  ? C
   C29        1.0     0.759510     0.445011     0.055885    Uiso  ? C
   C30        1.0     0.858619     0.387450     0.051494    Uiso  ? C
   C31        1.0     0.958356     0.442597     0.049238    Uiso  ? C
   C32        1.0     0.958980     0.553368     0.048899    Uiso  ? C
   C33        1.0     0.859553     0.608542     0.050723    Uiso  ? C
   C34        1.0     0.056979     0.721589     0.048975    Uiso  ? C
   C35        1.0     0.155183     0.778039     0.049668    Uiso  ? C
   C36        1.0     0.155019     0.889179     0.050947    Uiso  ? C
   C37        1.0     0.055113     0.944124     0.051465    Uiso  ? C
   C38        1.0     0.254486     0.722621     0.050788    Uiso  ? C
   C39        1.0     0.352208     0.779444     0.054183    Uiso  ? C
   C40        1.0     0.353635     0.890066     0.055254    Uiso  ? C
   C41        1.0     0.254551     0.945487     0.053067    Uiso  ? C
   C42        1.0     0.450509     0.724254     0.060232    Uiso  ? C
   C43        1.0     0.552231     0.885270     0.063061    Uiso  ? C
   C44        1.0     0.454014     0.944355     0.058911    Uiso  ? C
   C45        1.0     0.754439     0.881961     0.058207    Uiso  ? C
   C46        1.0     0.654503     0.939847     0.061567    Uiso  ? C
   C47        1.0     0.859643     0.720686     0.052066    Uiso  ? C
   C48        1.0     0.957479     0.777072     0.050470    Uiso  ? C
   C49        1.0     0.955535     0.887823     0.051956    Uiso  ? C
   C50        1.0     0.854382     0.940882     0.054929    Uiso  ? C
   C51        1.0     0.456274     0.391695     0.060814    Uiso  ? C
   C52        1.0     0.455979     0.613435     0.060387    Uiso  ? C
   C53        1.0     0.661198     0.387813     0.064515    Uiso  ? C
   C54        1.0     0.758959     0.557110     0.055480    Uiso  ? C
   C55        1.0     0.758041     0.770317     0.056642    Uiso  ? C
   N1         1.0     0.546930     0.779326     0.067366    Uiso  ? N
   Fe1        1.0     0.645968     0.665437     0.070745    Uiso  ? Fe
   Ni1        1.0     0.564054     0.493088     0.074121    Uiso  ? Ni
   H1         1.0     0.607679     0.570560     0.131260    Uiso  ? H
