
#======================================================================
# CRYSTAL DATA
#----------------------------------------------------------------------
data_VESTA_phase_1

_chemical_name_common                  'CONTCAR                               '
_cell_length_a                         12.331300
_cell_length_b                         12.829200
_cell_length_c                         19.994400
_cell_angle_alpha                      89.996696
_cell_angle_beta                       89.998299
_cell_angle_gamma                      89.999496
_cell_volume                           3163.128245
_space_group_name_H-M_alt              'P 1'
_space_group_IT_number                 1

loop_
_space_group_symop_operation_xyz
   'x, y, z'

loop_
   _atom_site_label
   _atom_site_occupancy
   _atom_site_fract_x
   _atom_site_fract_y
   _atom_site_fract_z
   _atom_site_adp_type
   _atom_site_U_iso_or_equiv
   _atom_site_type_symbol
   C1         1.0     0.055348     0.055552     0.048639    Uiso  ? C
   C2         1.0     0.155597     0.111208     0.048961    Uiso  ? C
   C3         1.0     0.156243     0.222005     0.048409    Uiso  ? C
   C4         1.0     0.056049     0.276805     0.047591    Uiso  ? C
   C5         1.0     0.255769     0.056419     0.050625    Uiso  ? C
   C6         1.0     0.356038     0.111934     0.054201    Uiso  ? C
   C7         1.0     0.356783     0.223455     0.054245    Uiso  ? C
   C8         1.0     0.256386     0.277758     0.049871    Uiso  ? C
   C9         1.0     0.455555     0.055649     0.058063    Uiso  ? C
   C10        1.0     0.555756     0.111243     0.061621    Uiso  ? C
   C11        1.0     0.556360     0.222646     0.063485    Uiso  ? C
   C12        1.0     0.456731     0.280614     0.059666    Uiso  ? C
   C13        1.0     0.654987     0.052263     0.061354    Uiso  ? C
   C14        1.0     0.755079     0.109479     0.057994    Uiso  ? C
   C15        1.0     0.755861     0.221411     0.058674    Uiso  ? C
   C16        1.0     0.656819     0.279542     0.064981    Uiso  ? C
   C17        1.0     0.854759     0.053602     0.053671    Uiso  ? C
   C18        1.0     0.954860     0.110045     0.050603    Uiso  ? C
   C19        1.0     0.955564     0.221323     0.050247    Uiso  ? C
   C20        1.0     0.855901     0.277174     0.053696    Uiso  ? C
   C21        1.0     0.056792     0.387771     0.045586    Uiso  ? C
   C22        1.0     0.156311     0.443809     0.045073    Uiso  ? C
   C23        1.0     0.157002     0.555278     0.043827    Uiso  ? C
   C24        1.0     0.057612     0.610537     0.042632    Uiso  ? C
   C25        1.0     0.256287     0.388720     0.048311    Uiso  ? C
   C26        1.0     0.355629     0.444819     0.052383    Uiso  ? C
   C27        1.0     0.356566     0.557997     0.051846    Uiso  ? C
   C28        1.0     0.256074     0.611956     0.046385    Uiso  ? C
   C29        1.0     0.757588     0.446861     0.058856    Uiso  ? C
   C30        1.0     0.856920     0.388707     0.051989    Uiso  ? C
   C31        1.0     0.956981     0.443162     0.046322    Uiso  ? C
   C32        1.0     0.958543     0.553855     0.044337    Uiso  ? C
   C33        1.0     0.859654     0.609199     0.047597    Uiso  ? C
   C34        1.0     0.057027     0.722037     0.043056    Uiso  ? C
   C35        1.0     0.155487     0.778393     0.044384    Uiso  ? C
   C36        1.0     0.155105     0.889562     0.046338    Uiso  ? C
   C37        1.0     0.055067     0.944735     0.047140    Uiso  ? C
   C38        1.0     0.254870     0.722750     0.046503    Uiso  ? C
   C39        1.0     0.353038     0.778921     0.051984    Uiso  ? C
   C40        1.0     0.353995     0.889722     0.053077    Uiso  ? C
   C41        1.0     0.254768     0.945466     0.049481    Uiso  ? C
   C42        1.0     0.451518     0.722983     0.060189    Uiso  ? C
   C43        1.0     0.552168     0.885023     0.063903    Uiso  ? C
   C44        1.0     0.454143     0.944280     0.058278    Uiso  ? C
   C45        1.0     0.754687     0.882943     0.057890    Uiso  ? C
   C46        1.0     0.654360     0.940228     0.062372    Uiso  ? C
   C47        1.0     0.859656     0.721492     0.048574    Uiso  ? C
   C48        1.0     0.957558     0.777811     0.045448    Uiso  ? C
   C49        1.0     0.955392     0.888559     0.047929    Uiso  ? C
   C50        1.0     0.854317     0.941799     0.052766    Uiso  ? C
   C51        1.0     0.455272     0.391815     0.060384    Uiso  ? C
   C52        1.0     0.455516     0.611699     0.060840    Uiso  ? C
   C53        1.0     0.659397     0.389544     0.070682    Uiso  ? C
   C54        1.0     0.759704     0.558324     0.056084    Uiso  ? C
   C55        1.0     0.759048     0.771724     0.057118    Uiso  ? C
   N1         1.0     0.547037     0.778847     0.068712    Uiso  ? N
   Fe1        1.0     0.651695     0.667482     0.080667    Uiso  ? Fe
   Ni1        1.0     0.556458     0.489674     0.087615    Uiso  ? Ni
   O1         1.0     0.620277     0.583539     0.158346    Uiso  ? O
   H1         1.0     0.559326     0.610781     0.184230    Uiso  ? H
