
#======================================================================
# CRYSTAL DATA
#----------------------------------------------------------------------
data_VESTA_phase_1

_chemical_name_common                  'CONTCAR                               '
_cell_length_a                         12.331300
_cell_length_b                         12.829200
_cell_length_c                         19.994400
_cell_angle_alpha                      89.996696
_cell_angle_beta                       89.998299
_cell_angle_gamma                      89.999496
_cell_volume                           3163.128245
_space_group_name_H-M_alt              'P 1'
_space_group_IT_number                 1

loop_
_space_group_symop_operation_xyz
   'x, y, z'

loop_
   _atom_site_label
   _atom_site_occupancy
   _atom_site_fract_x
   _atom_site_fract_y
   _atom_site_fract_z
   _atom_site_adp_type
   _atom_site_U_iso_or_equiv
   _atom_site_type_symbol
   C1         1.0     0.055248     0.054801     0.052957    Uiso  ? C
   C2         1.0     0.155472     0.110472     0.052358    Uiso  ? C
   C3         1.0     0.156017     0.221338     0.051779    Uiso  ? C
   C4         1.0     0.055861     0.276245     0.050622    Uiso  ? C
   C5         1.0     0.255716     0.055519     0.052547    Uiso  ? C
   C6         1.0     0.356069     0.110983     0.055130    Uiso  ? C
   C7         1.0     0.356642     0.222598     0.056166    Uiso  ? C
   C8         1.0     0.256302     0.277085     0.052874    Uiso  ? C
   C9         1.0     0.455684     0.054744     0.057036    Uiso  ? C
   C10        1.0     0.555774     0.110577     0.060462    Uiso  ? C
   C11        1.0     0.556066     0.221945     0.062816    Uiso  ? C
   C12        1.0     0.456578     0.279761     0.060816    Uiso  ? C
   C13        1.0     0.655020     0.052012     0.061091    Uiso  ? C
   C14        1.0     0.754928     0.109106     0.059666    Uiso  ? C
   C15        1.0     0.755591     0.221176     0.059001    Uiso  ? C
   C16        1.0     0.656255     0.279138     0.063377    Uiso  ? C
   C17        1.0     0.854558     0.052898     0.057394    Uiso  ? C
   C18        1.0     0.954740     0.109409     0.054286    Uiso  ? C
   C19        1.0     0.955372     0.220817     0.052744    Uiso  ? C
   C20        1.0     0.855489     0.276947     0.054538    Uiso  ? C
   C21        1.0     0.056751     0.387347     0.048542    Uiso  ? C
   C22        1.0     0.156367     0.443145     0.048189    Uiso  ? C
   C23        1.0     0.157126     0.554618     0.047149    Uiso  ? C
   C24        1.0     0.057473     0.609845     0.047229    Uiso  ? C
   C25        1.0     0.256424     0.388057     0.051026    Uiso  ? C
   C26        1.0     0.356253     0.443924     0.053831    Uiso  ? C
   C27        1.0     0.357959     0.557084     0.050423    Uiso  ? C
   C28        1.0     0.256709     0.611084     0.047447    Uiso  ? C
   C29        1.0     0.756582     0.446803     0.056526    Uiso  ? C
   C30        1.0     0.856554     0.388516     0.052117    Uiso  ? C
   C31        1.0     0.956841     0.442860     0.048431    Uiso  ? C
   C32        1.0     0.958140     0.553532     0.047982    Uiso  ? C
   C33        1.0     0.858914     0.609118     0.051910    Uiso  ? C
   C34        1.0     0.056682     0.721334     0.048601    Uiso  ? C
   C35        1.0     0.155403     0.777433     0.048119    Uiso  ? C
   C36        1.0     0.155060     0.888597     0.049995    Uiso  ? C
   C37        1.0     0.055050     0.943812     0.052530    Uiso  ? C
   C38        1.0     0.255199     0.721791     0.047327    Uiso  ? C
   C39        1.0     0.353831     0.777941     0.048911    Uiso  ? C
   C40        1.0     0.354468     0.888827     0.050809    Uiso  ? C
   C41        1.0     0.254927     0.944526     0.050626    Uiso  ? C
   C42        1.0     0.453490     0.722307     0.051441    Uiso  ? C
   C43        1.0     0.553329     0.884524     0.057731    Uiso  ? C
   C44        1.0     0.454738     0.943342     0.054843    Uiso  ? C
   C45        1.0     0.754354     0.882047     0.063140    Uiso  ? C
   C46        1.0     0.654617     0.939837     0.061720    Uiso  ? C
   C47        1.0     0.858662     0.720792     0.056682    Uiso  ? C
   C48        1.0     0.957050     0.776923     0.052858    Uiso  ? C
   C49        1.0     0.955406     0.887697     0.054940    Uiso  ? C
   C50        1.0     0.854179     0.940910     0.058628    Uiso  ? C
   C51        1.0     0.455363     0.390871     0.061952    Uiso  ? C
   C52        1.0     0.457583     0.611374     0.053410    Uiso  ? C
   C53        1.0     0.658976     0.389139     0.067110    Uiso  ? C
   C54        1.0     0.759166     0.558259     0.055412    Uiso  ? C
   C55        1.0     0.757977     0.770368     0.065952    Uiso  ? C
   N1         1.0     0.549770     0.777869     0.055924    Uiso  ? N
   Fe1        1.0     0.644594     0.666294     0.079851    Uiso  ? Fe
   Ni1        1.0     0.558914     0.491421     0.086204    Uiso  ? Ni
   O1         1.0     0.631440     0.586249     0.145572    Uiso  ? O
