
#======================================================================
# CRYSTAL DATA
#----------------------------------------------------------------------
data_VESTA_phase_1

_chemical_name_common                  'CONTCAR                               '
_cell_length_a                         12.331300
_cell_length_b                         12.829200
_cell_length_c                         19.994400
_cell_angle_alpha                      89.996696
_cell_angle_beta                       89.998299
_cell_angle_gamma                      89.999496
_cell_volume                           3163.128245
_space_group_name_H-M_alt              'P 1'
_space_group_IT_number                 1

loop_
_space_group_symop_operation_xyz
   'x, y, z'

loop_
   _atom_site_label
   _atom_site_occupancy
   _atom_site_fract_x
   _atom_site_fract_y
   _atom_site_fract_z
   _atom_site_adp_type
   _atom_site_U_iso_or_equiv
   _atom_site_type_symbol
   C1         1.0     0.055413     0.052022     0.054271    Uiso  ? C
   C2         1.0     0.155408     0.108330     0.054308    Uiso  ? C
   C3         1.0     0.156551     0.219209     0.054227    Uiso  ? C
   C4         1.0     0.056563     0.273665     0.053936    Uiso  ? C
   C5         1.0     0.255297     0.053786     0.054313    Uiso  ? C
   C6         1.0     0.355631     0.109584     0.054222    Uiso  ? C
   C7         1.0     0.357053     0.221177     0.054086    Uiso  ? C
   C8         1.0     0.256755     0.275472     0.054225    Uiso  ? C
   C9         1.0     0.454792     0.053205     0.054162    Uiso  ? C
   C10        1.0     0.555430     0.108052     0.054092    Uiso  ? C
   C11        1.0     0.556363     0.218866     0.053398    Uiso  ? C
   C12        1.0     0.457585     0.278181     0.053501    Uiso  ? C
   C13        1.0     0.654798     0.049412     0.054777    Uiso  ? C
   C14        1.0     0.755478     0.105325     0.054413    Uiso  ? C
   C15        1.0     0.756944     0.216602     0.053801    Uiso  ? C
   C16        1.0     0.657609     0.273588     0.053301    Uiso  ? C
   C17        1.0     0.855002     0.049569     0.054446    Uiso  ? C
   C18        1.0     0.955235     0.106275     0.054141    Uiso  ? C
   C19        1.0     0.956454     0.217478     0.053831    Uiso  ? C
   C20        1.0     0.856796     0.272755     0.053511    Uiso  ? C
   C21        1.0     0.057544     0.384881     0.053631    Uiso  ? C
   C22        1.0     0.156823     0.441131     0.053691    Uiso  ? C
   C23        1.0     0.156862     0.552504     0.053358    Uiso  ? C
   C24        1.0     0.056638     0.607157     0.053303    Uiso  ? C
   C25        1.0     0.257061     0.386571     0.054073    Uiso  ? C
   C26        1.0     0.357027     0.442717     0.053921    Uiso  ? C
   C27        1.0     0.358562     0.556337     0.053942    Uiso  ? C
   C28        1.0     0.256539     0.609244     0.053463    Uiso  ? C
   C29        1.0     0.758587     0.440443     0.054026    Uiso  ? C
   C30        1.0     0.858484     0.384034     0.053384    Uiso  ? C
   C31        1.0     0.957684     0.439722     0.053369    Uiso  ? C
   C32        1.0     0.956891     0.550607     0.053397    Uiso  ? C
   C33        1.0     0.856551     0.605182     0.054256    Uiso  ? C
   C34        1.0     0.055851     0.718585     0.053399    Uiso  ? C
   C35        1.0     0.154229     0.775114     0.053499    Uiso  ? C
   C36        1.0     0.154251     0.886272     0.053902    Uiso  ? C
   C37        1.0     0.054439     0.941057     0.054162    Uiso  ? C
   C38        1.0     0.253755     0.719952     0.053451    Uiso  ? C
   C39        1.0     0.351492     0.776935     0.053635    Uiso  ? C
   C40        1.0     0.352831     0.887567     0.053945    Uiso  ? C
   C41        1.0     0.253740     0.942858     0.054079    Uiso  ? C
   C42        1.0     0.450615     0.722139     0.053501    Uiso  ? C
   C43        1.0     0.551412     0.884090     0.054957    Uiso  ? C
   C44        1.0     0.453011     0.942394     0.054129    Uiso  ? C
   C45        1.0     0.753574     0.879796     0.056389    Uiso  ? C
   C46        1.0     0.653831     0.937913     0.055794    Uiso  ? C
   C47        1.0     0.857645     0.717391     0.055182    Uiso  ? C
   C48        1.0     0.956109     0.773729     0.053999    Uiso  ? C
   C49        1.0     0.954804     0.884606     0.054376    Uiso  ? C
   C50        1.0     0.853866     0.937967     0.054970    Uiso  ? C
   C51        1.0     0.456784     0.389629     0.053283    Uiso  ? C
   C52        1.0     0.458840     0.611235     0.053730    Uiso  ? C
   C53        1.0     0.661080     0.382194     0.052934    Uiso  ? C
   C54        1.0     0.754735     0.552917     0.055614    Uiso  ? C
   C55        1.0     0.756645     0.768464     0.057980    Uiso  ? C
   N1         1.0     0.546273     0.778701     0.055139    Uiso  ? N
   Fe1        1.0     0.641639     0.665738     0.063403    Uiso  ? Fe
   Ni1        1.0     0.568342     0.488826     0.050714    Uiso  ? Ni
   H1         1.0     0.660824     0.670750     0.162245    Uiso  ? H
   H2         1.0     0.603031     0.646291     0.160421    Uiso  ? H
