
#======================================================================
# CRYSTAL DATA
#----------------------------------------------------------------------
data_VESTA_phase_1

_chemical_name_common                  'CONTCAR                               '
_cell_length_a                         12.331300
_cell_length_b                         12.829200
_cell_length_c                         19.994400
_cell_angle_alpha                      89.996696
_cell_angle_beta                       89.998299
_cell_angle_gamma                      89.999496
_cell_volume                           3163.128245
_space_group_name_H-M_alt              'P 1'
_space_group_IT_number                 1

loop_
_space_group_symop_operation_xyz
   'x, y, z'

loop_
   _atom_site_label
   _atom_site_occupancy
   _atom_site_fract_x
   _atom_site_fract_y
   _atom_site_fract_z
   _atom_site_adp_type
   _atom_site_U_iso_or_equiv
   _atom_site_type_symbol
   C1         1.0     0.055848     0.053992     0.045265    Uiso  ? C
   C2         1.0     0.156061     0.109567     0.045301    Uiso  ? C
   C3         1.0     0.156566     0.220435     0.045325    Uiso  ? C
   C4         1.0     0.056338     0.275486     0.045426    Uiso  ? C
   C5         1.0     0.256112     0.054234     0.046546    Uiso  ? C
   C6         1.0     0.356312     0.109672     0.048977    Uiso  ? C
   C7         1.0     0.356791     0.220936     0.049417    Uiso  ? C
   C8         1.0     0.256804     0.276089     0.046807    Uiso  ? C
   C9         1.0     0.455955     0.053634     0.051866    Uiso  ? C
   C10        1.0     0.556169     0.109278     0.054522    Uiso  ? C
   C11        1.0     0.556487     0.220187     0.056387    Uiso  ? C
   C12        1.0     0.456869     0.277280     0.054323    Uiso  ? C
   C13        1.0     0.655543     0.050803     0.054592    Uiso  ? C
   C14        1.0     0.755393     0.108370     0.052201    Uiso  ? C
   C15        1.0     0.755808     0.220350     0.052951    Uiso  ? C
   C16        1.0     0.656197     0.278302     0.057726    Uiso  ? C
   C17        1.0     0.855222     0.052432     0.049011    Uiso  ? C
   C18        1.0     0.955313     0.108906     0.046698    Uiso  ? C
   C19        1.0     0.955702     0.220217     0.046878    Uiso  ? C
   C20        1.0     0.855667     0.276357     0.049861    Uiso  ? C
   C21        1.0     0.057227     0.386489     0.045421    Uiso  ? C
   C22        1.0     0.157141     0.442294     0.045502    Uiso  ? C
   C23        1.0     0.158522     0.553613     0.045509    Uiso  ? C
   C24        1.0     0.058637     0.608828     0.045012    Uiso  ? C
   C25        1.0     0.257213     0.387141     0.047083    Uiso  ? C
   C26        1.0     0.357203     0.442896     0.051310    Uiso  ? C
   C27        1.0     0.359928     0.555913     0.052745    Uiso  ? C
   C28        1.0     0.258330     0.609870     0.047770    Uiso  ? C
   C29        1.0     0.756266     0.446492     0.056978    Uiso  ? C
   C30        1.0     0.856264     0.388019     0.050434    Uiso  ? C
   C31        1.0     0.957180     0.442010     0.047117    Uiso  ? C
   C32        1.0     0.959043     0.552540     0.046868    Uiso  ? C
   C33        1.0     0.859745     0.607814     0.051049    Uiso  ? C
   C34        1.0     0.058034     0.720202     0.044756    Uiso  ? C
   C35        1.0     0.156616     0.776248     0.045094    Uiso  ? C
   C36        1.0     0.155879     0.887482     0.045032    Uiso  ? C
   C37        1.0     0.055869     0.943057     0.044971    Uiso  ? C
   C38        1.0     0.256277     0.720491     0.047310    Uiso  ? C
   C39        1.0     0.354629     0.776605     0.050170    Uiso  ? C
   C40        1.0     0.355018     0.887484     0.049302    Uiso  ? C
   C41        1.0     0.255489     0.943294     0.046483    Uiso  ? C
   C42        1.0     0.454425     0.721374     0.056399    Uiso  ? C
   C43        1.0     0.553156     0.883576     0.056310    Uiso  ? C
   C44        1.0     0.454817     0.942513     0.052276    Uiso  ? C
   C45        1.0     0.755372     0.882067     0.053680    Uiso  ? C
   C46        1.0     0.655104     0.939157     0.055870    Uiso  ? C
   C47        1.0     0.860496     0.719873     0.049857    Uiso  ? C
   C48        1.0     0.958524     0.776187     0.045999    Uiso  ? C
   C49        1.0     0.956231     0.886943     0.046192    Uiso  ? C
   C50        1.0     0.855168     0.940635     0.048982    Uiso  ? C
   C51        1.0     0.455339     0.387567     0.057300    Uiso  ? C
   C52        1.0     0.459381     0.610152     0.060879    Uiso  ? C
   C53        1.0     0.657841     0.388111     0.063376    Uiso  ? C
   C54        1.0     0.758827     0.558091     0.058973    Uiso  ? C
   C55        1.0     0.760804     0.771431     0.055642    Uiso  ? C
   N1         1.0     0.549042     0.777965     0.059126    Uiso  ? N
   Fe1        1.0     0.653415     0.671587     0.085687    Uiso  ? Fe
   Ni1        1.0     0.552924     0.478733     0.096859    Uiso  ? Ni
   O1         1.0     0.560324     0.520003     0.181489    Uiso  ? O
   O2         1.0     0.656558     0.706221     0.176662    Uiso  ? O
   H1         1.0     0.726674     0.697721     0.198426    Uiso  ? H
   H2         1.0     0.584332     0.592043     0.192199    Uiso  ? H
