
#======================================================================
# CRYSTAL DATA
#----------------------------------------------------------------------
data_VESTA_phase_1

_chemical_name_common                  'CONTCAR                               '
_cell_length_a                         12.331300
_cell_length_b                         12.829200
_cell_length_c                         19.994400
_cell_angle_alpha                      89.996696
_cell_angle_beta                       89.998299
_cell_angle_gamma                      89.999496
_cell_volume                           3163.128245
_space_group_name_H-M_alt              'P 1'
_space_group_IT_number                 1

loop_
_space_group_symop_operation_xyz
   'x, y, z'

loop_
   _atom_site_label
   _atom_site_occupancy
   _atom_site_fract_x
   _atom_site_fract_y
   _atom_site_fract_z
   _atom_site_adp_type
   _atom_site_U_iso_or_equiv
   _atom_site_type_symbol
   C1         1.0     0.055367     0.054787     0.049320    Uiso  ? C
   C2         1.0     0.155555     0.110686     0.049294    Uiso  ? C
   C3         1.0     0.156475     0.221528     0.049344    Uiso  ? C
   C4         1.0     0.056315     0.276243     0.048922    Uiso  ? C
   C5         1.0     0.255604     0.055836     0.050002    Uiso  ? C
   C6         1.0     0.355958     0.111276     0.052376    Uiso  ? C
   C7         1.0     0.356953     0.222708     0.053250    Uiso  ? C
   C8         1.0     0.256743     0.277376     0.050750    Uiso  ? C
   C9         1.0     0.455437     0.054975     0.054752    Uiso  ? C
   C10        1.0     0.555818     0.110304     0.057677    Uiso  ? C
   C11        1.0     0.556473     0.221473     0.059959    Uiso  ? C
   C12        1.0     0.457108     0.279505     0.057838    Uiso  ? C
   C13        1.0     0.655005     0.051561     0.057594    Uiso  ? C
   C14        1.0     0.755145     0.108707     0.055538    Uiso  ? C
   C15        1.0     0.756027     0.220494     0.055920    Uiso  ? C
   C16        1.0     0.656739     0.278363     0.061102    Uiso  ? C
   C17        1.0     0.854832     0.052706     0.052873    Uiso  ? C
   C18        1.0     0.954949     0.109285     0.050674    Uiso  ? C
   C19        1.0     0.955785     0.220603     0.050333    Uiso  ? C
   C20        1.0     0.856054     0.276446     0.052413    Uiso  ? C
   C21        1.0     0.057299     0.387252     0.048142    Uiso  ? C
   C22        1.0     0.156949     0.443384     0.048537    Uiso  ? C
   C23        1.0     0.157783     0.554750     0.048001    Uiso  ? C
   C24        1.0     0.058041     0.609757     0.047224    Uiso  ? C
   C25        1.0     0.257091     0.388432     0.050555    Uiso  ? C
   C26        1.0     0.356865     0.444505     0.053953    Uiso  ? C
   C27        1.0     0.358576     0.557761     0.053659    Uiso  ? C
   C28        1.0     0.257159     0.611301     0.049501    Uiso  ? C
   C29        1.0     0.757563     0.445955     0.056674    Uiso  ? C
   C30        1.0     0.857083     0.387975     0.051368    Uiso  ? C
   C31        1.0     0.957462     0.442496     0.048433    Uiso  ? C
   C32        1.0     0.958886     0.553103     0.048054    Uiso  ? C
   C33        1.0     0.859551     0.608084     0.050605    Uiso  ? C
   C34        1.0     0.056908     0.721114     0.047318    Uiso  ? C
   C35        1.0     0.155278     0.777460     0.047380    Uiso  ? C
   C36        1.0     0.154916     0.888720     0.047942    Uiso  ? C
   C37        1.0     0.054905     0.943855     0.048780    Uiso  ? C
   C38        1.0     0.254761     0.721986     0.048610    Uiso  ? C
   C39        1.0     0.352680     0.778619     0.050827    Uiso  ? C
   C40        1.0     0.353745     0.889328     0.050987    Uiso  ? C
   C41        1.0     0.254452     0.944927     0.049160    Uiso  ? C
   C42        1.0     0.451606     0.723477     0.056932    Uiso  ? C
   C43        1.0     0.552132     0.884847     0.058310    Uiso  ? C
   C44        1.0     0.453882     0.943899     0.054406    Uiso  ? C
   C45        1.0     0.754260     0.881976     0.056641    Uiso  ? C
   C46        1.0     0.654328     0.939663     0.058405    Uiso  ? C
   C47        1.0     0.859270     0.720325     0.051425    Uiso  ? C
   C48        1.0     0.957232     0.776663     0.049025    Uiso  ? C
   C49        1.0     0.955295     0.887529     0.050065    Uiso  ? C
   C50        1.0     0.854233     0.940827     0.052945    Uiso  ? C
   C51        1.0     0.456197     0.390442     0.059982    Uiso  ? C
   C52        1.0     0.458112     0.612428     0.060622    Uiso  ? C
   C53        1.0     0.659337     0.387962     0.066691    Uiso  ? C
   C54        1.0     0.759025     0.557241     0.055793    Uiso  ? C
   C55        1.0     0.758077     0.770580     0.057266    Uiso  ? C
   N1         1.0     0.547171     0.779091     0.060919    Uiso  ? N
   Fe1        1.0     0.647524     0.666503     0.071934    Uiso  ? Fe
   Ni1        1.0     0.558649     0.487102     0.088965    Uiso  ? Ni
   O1         1.0     0.611662     0.548547     0.168460    Uiso  ? O
   O2         1.0     0.646201     0.650478     0.159580    Uiso  ? O
