
#======================================================================
# CRYSTAL DATA
#----------------------------------------------------------------------
data_VESTA_phase_1

_chemical_name_common                  'CONTCAR                               '
_cell_length_a                         12.331300
_cell_length_b                         12.829200
_cell_length_c                         19.994400
_cell_angle_alpha                      89.996696
_cell_angle_beta                       89.998299
_cell_angle_gamma                      89.999496
_cell_volume                           3163.128245
_space_group_name_H-M_alt              'P 1'
_space_group_IT_number                 1

loop_
_space_group_symop_operation_xyz
   'x, y, z'

loop_
   _atom_site_label
   _atom_site_occupancy
   _atom_site_fract_x
   _atom_site_fract_y
   _atom_site_fract_z
   _atom_site_adp_type
   _atom_site_U_iso_or_equiv
   _atom_site_type_symbol
   C1         1.0     0.055909     0.054576     0.055787    Uiso  ? C
   C2         1.0     0.155905     0.110906     0.055807    Uiso  ? C
   C3         1.0     0.157089     0.221809     0.055790    Uiso  ? C
   C4         1.0     0.057102     0.276266     0.055767    Uiso  ? C
   C5         1.0     0.255805     0.056345     0.055810    Uiso  ? C
   C6         1.0     0.356133     0.112178     0.055780    Uiso  ? C
   C7         1.0     0.357531     0.223787     0.055755    Uiso  ? C
   C8         1.0     0.257283     0.278105     0.055773    Uiso  ? C
   C9         1.0     0.455305     0.055785     0.055752    Uiso  ? C
   C10        1.0     0.555910     0.110677     0.055711    Uiso  ? C
   C11        1.0     0.556799     0.221493     0.055699    Uiso  ? C
   C12        1.0     0.458062     0.280858     0.055704    Uiso  ? C
   C13        1.0     0.655282     0.052081     0.055665    Uiso  ? C
   C14        1.0     0.755998     0.107936     0.055672    Uiso  ? C
   C15        1.0     0.757488     0.219172     0.055675    Uiso  ? C
   C16        1.0     0.658094     0.276090     0.055665    Uiso  ? C
   C17        1.0     0.855517     0.052159     0.055691    Uiso  ? C
   C18        1.0     0.955746     0.108835     0.055740    Uiso  ? C
   C19        1.0     0.957026     0.220019     0.055735    Uiso  ? C
   C20        1.0     0.857386     0.275284     0.055693    Uiso  ? C
   C21        1.0     0.058132     0.387474     0.055749    Uiso  ? C
   C22        1.0     0.157392     0.443758     0.055766    Uiso  ? C
   C23        1.0     0.157374     0.555131     0.055778    Uiso  ? C
   C24        1.0     0.057106     0.609735     0.055770    Uiso  ? C
   C25        1.0     0.257630     0.389208     0.055759    Uiso  ? C
   C26        1.0     0.357608     0.445390     0.055714    Uiso  ? C
   C27        1.0     0.359227     0.559003     0.055703    Uiso  ? C
   C28        1.0     0.257105     0.611834     0.055768    Uiso  ? C
   C29        1.0     0.759121     0.442792     0.055660    Uiso  ? C
   C30        1.0     0.859109     0.386525     0.055683    Uiso  ? C
   C31        1.0     0.958259     0.442280     0.055710    Uiso  ? C
   C32        1.0     0.957305     0.553160     0.055712    Uiso  ? C
   C33        1.0     0.856836     0.607574     0.055671    Uiso  ? C
   C34        1.0     0.056333     0.721128     0.055788    Uiso  ? C
   C35        1.0     0.154731     0.777650     0.055818    Uiso  ? C
   C36        1.0     0.154764     0.888812     0.055824    Uiso  ? C
   C37        1.0     0.054926     0.943617     0.055795    Uiso  ? C
   C38        1.0     0.254307     0.722517     0.055793    Uiso  ? C
   C39        1.0     0.352135     0.779392     0.055755    Uiso  ? C
   C40        1.0     0.353424     0.890047     0.055777    Uiso  ? C
   C41        1.0     0.254294     0.945363     0.055821    Uiso  ? C
   C42        1.0     0.451327     0.724529     0.055669    Uiso  ? C
   C43        1.0     0.552004     0.886731     0.055656    Uiso  ? C
   C44        1.0     0.453585     0.944942     0.055735    Uiso  ? C
   C45        1.0     0.754043     0.882456     0.055627    Uiso  ? C
   C46        1.0     0.654339     0.940567     0.055633    Uiso  ? C
   C47        1.0     0.858010     0.719860     0.055667    Uiso  ? C
   C48        1.0     0.956517     0.776199     0.055740    Uiso  ? C
   C49        1.0     0.955270     0.887116     0.055745    Uiso  ? C
   C50        1.0     0.854406     0.940567     0.055675    Uiso  ? C
   C51        1.0     0.457332     0.392328     0.055673    Uiso  ? C
   C52        1.0     0.459714     0.613711     0.055645    Uiso  ? C
   C53        1.0     0.661614     0.384614     0.055639    Uiso  ? C
   C54        1.0     0.754870     0.555284     0.055657    Uiso  ? C
   C55        1.0     0.757034     0.771151     0.055617    Uiso  ? C
   N1         1.0     0.547008     0.781289     0.055621    Uiso  ? N
   Fe1        1.0     0.642434     0.668707     0.055615    Uiso  ? Fe
   Ni1        1.0     0.569378     0.491798     0.055624    Uiso  ? Ni
