
#======================================================================
# CRYSTAL DATA
#----------------------------------------------------------------------
data_VESTA_phase_1

_chemical_name_common                  'CONTCAR                               '
_cell_length_a                         12.331300
_cell_length_b                         12.829200
_cell_length_c                         19.994400
_cell_angle_alpha                      89.996696
_cell_angle_beta                       89.998299
_cell_angle_gamma                      89.999496
_cell_volume                           3163.128245
_space_group_name_H-M_alt              'P 1'
_space_group_IT_number                 1

loop_
_space_group_symop_operation_xyz
   'x, y, z'

loop_
   _atom_site_label
   _atom_site_occupancy
   _atom_site_fract_x
   _atom_site_fract_y
   _atom_site_fract_z
   _atom_site_adp_type
   _atom_site_U_iso_or_equiv
   _atom_site_type_symbol
   C1         1.0     0.055780     0.055201     0.050892    Uiso  ? C
   C2         1.0     0.156342     0.110187     0.050776    Uiso  ? C
   C3         1.0     0.156177     0.220940     0.049113    Uiso  ? C
   C4         1.0     0.056047     0.276288     0.047901    Uiso  ? C
   C5         1.0     0.256864     0.055333     0.053150    Uiso  ? C
   C6         1.0     0.357230     0.111048     0.056727    Uiso  ? C
   C7         1.0     0.356689     0.223106     0.055781    Uiso  ? C
   C8         1.0     0.255905     0.276586     0.050370    Uiso  ? C
   C9         1.0     0.456975     0.054884     0.061315    Uiso  ? C
   C10        1.0     0.556382     0.113104     0.064618    Uiso  ? C
   C11        1.0     0.556413     0.226727     0.065564    Uiso  ? C
   C12        1.0     0.455141     0.282801     0.060774    Uiso  ? C
   C13        1.0     0.655908     0.052791     0.064509    Uiso  ? C
   C14        1.0     0.755090     0.111125     0.061041    Uiso  ? C
   C15        1.0     0.755538     0.224047     0.061368    Uiso  ? C
   C16        1.0     0.657367     0.285247     0.067278    Uiso  ? C
   C17        1.0     0.854735     0.054446     0.056666    Uiso  ? C
   C18        1.0     0.955253     0.110063     0.052892    Uiso  ? C
   C19        1.0     0.955715     0.221484     0.051622    Uiso  ? C
   C20        1.0     0.856213     0.278210     0.055325    Uiso  ? C
   C21        1.0     0.057191     0.387313     0.045011    Uiso  ? C
   C22        1.0     0.156007     0.443438     0.043865    Uiso  ? C
   C23        1.0     0.155851     0.554330     0.042737    Uiso  ? C
   C24        1.0     0.057560     0.610976     0.042392    Uiso  ? C
   C25        1.0     0.255297     0.387683     0.047867    Uiso  ? C
   C26        1.0     0.353875     0.442399     0.052921    Uiso  ? C
   C27        1.0     0.352701     0.555439     0.053931    Uiso  ? C
   C28        1.0     0.254101     0.610375     0.046979    Uiso  ? C
   C29        1.0     0.762830     0.449523     0.061945    Uiso  ? C
   C30        1.0     0.859124     0.389681     0.053292    Uiso  ? C
   C31        1.0     0.958542     0.443708     0.046667    Uiso  ? C
   C32        1.0     0.959384     0.554858     0.045238    Uiso  ? C
   C33        1.0     0.861037     0.609859     0.051685    Uiso  ? C
   C34        1.0     0.056766     0.721872     0.044275    Uiso  ? C
   C35        1.0     0.155329     0.777993     0.046283    Uiso  ? C
   C36        1.0     0.156212     0.888965     0.048962    Uiso  ? C
   C37        1.0     0.055990     0.944370     0.049742    Uiso  ? C
   C38        1.0     0.254030     0.721532     0.048684    Uiso  ? C
   C39        1.0     0.352971     0.775797     0.055487    Uiso  ? C
   C40        1.0     0.355916     0.887472     0.056650    Uiso  ? C
   C41        1.0     0.256478     0.943930     0.052549    Uiso  ? C
   C42        1.0     0.449314     0.716186     0.064367    Uiso  ? C
   C43        1.0     0.554410     0.881695     0.067740    Uiso  ? C
   C44        1.0     0.456421     0.942317     0.062107    Uiso  ? C
   C45        1.0     0.756849     0.882316     0.060773    Uiso  ? C
   C46        1.0     0.655891     0.939024     0.065477    Uiso  ? C
   C47        1.0     0.859072     0.722612     0.052086    Uiso  ? C
   C48        1.0     0.957355     0.777680     0.048064    Uiso  ? C
   C49        1.0     0.956367     0.888764     0.050849    Uiso  ? C
   C50        1.0     0.855203     0.942103     0.055985    Uiso  ? C
   C51        1.0     0.662579     0.396982     0.072020    Uiso  ? C
   C52        1.0     0.549216     0.770440     0.072718    Uiso  ? C
   N1         1.0     0.450890     0.391090     0.060114    Uiso  ? N
   N2         1.0     0.447009     0.607444     0.064488    Uiso  ? N
   N3         1.0     0.766621     0.557922     0.061138    Uiso  ? N
   N4         1.0     0.761145     0.773031     0.059540    Uiso  ? N
   Fe1        1.0     0.653842     0.663710     0.075699    Uiso  ? Fe
   Ni1        1.0     0.554172     0.496837     0.078335    Uiso  ? Ni
   H1         1.0     0.612240     0.571408     0.129747    Uiso  ? H
