
#======================================================================
# CRYSTAL DATA
#----------------------------------------------------------------------
data_VESTA_phase_1

_chemical_name_common                  'POSCAR                                '
_cell_length_a                         12.331300
_cell_length_b                         12.829200
_cell_length_c                         19.994400
_cell_angle_alpha                      89.996696
_cell_angle_beta                       89.998299
_cell_angle_gamma                      89.999496
_cell_volume                           3163.128245
_space_group_name_H-M_alt              'P 1'
_space_group_IT_number                 1

loop_
_space_group_symop_operation_xyz
   'x, y, z'

loop_
   _atom_site_label
   _atom_site_occupancy
   _atom_site_fract_x
   _atom_site_fract_y
   _atom_site_fract_z
   _atom_site_adp_type
   _atom_site_U_iso_or_equiv
   _atom_site_type_symbol
   C1         1.0     0.055216     0.056588     0.048525    Uiso  ? C
   C2         1.0     0.155724     0.111532     0.048503    Uiso  ? C
   C3         1.0     0.155287     0.222359     0.047108    Uiso  ? C
   C4         1.0     0.055016     0.277947     0.046321    Uiso  ? C
   C5         1.0     0.256303     0.056414     0.051134    Uiso  ? C
   C6         1.0     0.356566     0.112148     0.055005    Uiso  ? C
   C7         1.0     0.355879     0.224251     0.053976    Uiso  ? C
   C8         1.0     0.255097     0.277912     0.048516    Uiso  ? C
   C9         1.0     0.456261     0.055750     0.060043    Uiso  ? C
   C10        1.0     0.555577     0.113893     0.063466    Uiso  ? C
   C11        1.0     0.555512     0.227071     0.064527    Uiso  ? C
   C12        1.0     0.454503     0.283552     0.059405    Uiso  ? C
   C13        1.0     0.655181     0.054202     0.063247    Uiso  ? C
   C14        1.0     0.754422     0.112261     0.059257    Uiso  ? C
   C15        1.0     0.754758     0.224739     0.059839    Uiso  ? C
   C16        1.0     0.656416     0.284958     0.066366    Uiso  ? C
   C17        1.0     0.854338     0.056105     0.054472    Uiso  ? C
   C18        1.0     0.954680     0.111749     0.050757    Uiso  ? C
   C19        1.0     0.954755     0.223163     0.050020    Uiso  ? C
   C20        1.0     0.855014     0.279680     0.054157    Uiso  ? C
   C21        1.0     0.055639     0.388992     0.043879    Uiso  ? C
   C22        1.0     0.154829     0.444893     0.042758    Uiso  ? C
   C23        1.0     0.154655     0.555720     0.041845    Uiso  ? C
   C24        1.0     0.055964     0.612340     0.041591    Uiso  ? C
   C25        1.0     0.254403     0.389063     0.046443    Uiso  ? C
   C26        1.0     0.353190     0.443798     0.051727    Uiso  ? C
   C27        1.0     0.352136     0.556653     0.053623    Uiso  ? C
   C28        1.0     0.253341     0.611461     0.046119    Uiso  ? C
   C29        1.0     0.759557     0.451015     0.060595    Uiso  ? C
   C30        1.0     0.856940     0.391193     0.052558    Uiso  ? C
   C31        1.0     0.956525     0.445282     0.045847    Uiso  ? C
   C32        1.0     0.957150     0.556575     0.044339    Uiso  ? C
   C33        1.0     0.857839     0.611291     0.049488    Uiso  ? C
   C34        1.0     0.055988     0.723217     0.042865    Uiso  ? C
   C35        1.0     0.155029     0.779140     0.044836    Uiso  ? C
   C36        1.0     0.155849     0.890119     0.047069    Uiso  ? C
   C37        1.0     0.055604     0.945726     0.047441    Uiso  ? C
   C38        1.0     0.253853     0.722652     0.047889    Uiso  ? C
   C39        1.0     0.353264     0.776499     0.055260    Uiso  ? C
   C40        1.0     0.355699     0.888253     0.055797    Uiso  ? C
   C41        1.0     0.256190     0.944910     0.050858    Uiso  ? C
   C42        1.0     0.449904     0.716510     0.065210    Uiso  ? C
   C43        1.0     0.554284     0.882868     0.067598    Uiso  ? C
   C44        1.0     0.455982     0.943298     0.061317    Uiso  ? C
   C45        1.0     0.756571     0.885139     0.058829    Uiso  ? C
   C46        1.0     0.655283     0.940791     0.064587    Uiso  ? C
   C47        1.0     0.857668     0.724381     0.049701    Uiso  ? C
   C48        1.0     0.956572     0.779051     0.046045    Uiso  ? C
   C49        1.0     0.955855     0.890212     0.048503    Uiso  ? C
   C50        1.0     0.855048     0.944208     0.053470    Uiso  ? C
   C51        1.0     0.660919     0.395885     0.071800    Uiso  ? C
   C52        1.0     0.549608     0.771534     0.074182    Uiso  ? C
   N1         1.0     0.450443     0.391797     0.058893    Uiso  ? N
   N2         1.0     0.446421     0.607938     0.066026    Uiso  ? N
   N3         1.0     0.762465     0.559461     0.057859    Uiso  ? N
   N4         1.0     0.760658     0.776873     0.057951    Uiso  ? N
   Fe1        1.0     0.662692     0.673989     0.088207    Uiso  ? Fe
   Ni1        1.0     0.550948     0.491499     0.084495    Uiso  ? Ni
   O1         1.0     0.615531     0.579556     0.153856    Uiso  ? O
   H1         1.0     0.553828     0.606894     0.178946    Uiso  ? H
