
#======================================================================
# CRYSTAL DATA
#----------------------------------------------------------------------
data_VESTA_phase_1

_chemical_name_common                  'CONTCAR                               '
_cell_length_a                         12.331300
_cell_length_b                         12.829200
_cell_length_c                         19.994400
_cell_angle_alpha                      89.996696
_cell_angle_beta                       89.998299
_cell_angle_gamma                      89.999496
_cell_volume                           3163.128245
_space_group_name_H-M_alt              'P 1'
_space_group_IT_number                 1

loop_
_space_group_symop_operation_xyz
   'x, y, z'

loop_
   _atom_site_label
   _atom_site_occupancy
   _atom_site_fract_x
   _atom_site_fract_y
   _atom_site_fract_z
   _atom_site_adp_type
   _atom_site_U_iso_or_equiv
   _atom_site_type_symbol
   C1         1.0     0.055917     0.055111     0.050630    Uiso  ? C
   C2         1.0     0.156405     0.110123     0.050648    Uiso  ? C
   C3         1.0     0.156110     0.220951     0.049198    Uiso  ? C
   C4         1.0     0.055895     0.276417     0.047916    Uiso  ? C
   C5         1.0     0.256976     0.055099     0.052762    Uiso  ? C
   C6         1.0     0.357274     0.110867     0.056410    Uiso  ? C
   C7         1.0     0.356665     0.222864     0.055644    Uiso  ? C
   C8         1.0     0.255856     0.276526     0.050350    Uiso  ? C
   C9         1.0     0.457084     0.054621     0.060868    Uiso  ? C
   C10        1.0     0.556403     0.112552     0.064448    Uiso  ? C
   C11        1.0     0.556380     0.226103     0.065771    Uiso  ? C
   C12        1.0     0.455174     0.282161     0.060972    Uiso  ? C
   C13        1.0     0.655995     0.052858     0.064313    Uiso  ? C
   C14        1.0     0.755133     0.110879     0.060620    Uiso  ? C
   C15        1.0     0.755573     0.223564     0.060901    Uiso  ? C
   C16        1.0     0.657229     0.284006     0.067271    Uiso  ? C
   C17        1.0     0.854955     0.054419     0.056169    Uiso  ? C
   C18        1.0     0.955315     0.110139     0.052546    Uiso  ? C
   C19        1.0     0.955549     0.221610     0.051423    Uiso  ? C
   C20        1.0     0.855905     0.278285     0.055075    Uiso  ? C
   C21        1.0     0.056824     0.387388     0.044717    Uiso  ? C
   C22        1.0     0.155864     0.443368     0.043430    Uiso  ? C
   C23        1.0     0.155722     0.554249     0.041950    Uiso  ? C
   C24        1.0     0.057120     0.610868     0.041449    Uiso  ? C
   C25        1.0     0.255400     0.387590     0.047547    Uiso  ? C
   C26        1.0     0.354195     0.442364     0.052175    Uiso  ? C
   C27        1.0     0.353191     0.555396     0.052479    Uiso  ? C
   C28        1.0     0.254097     0.610165     0.045716    Uiso  ? C
   C29        1.0     0.761186     0.450078     0.060677    Uiso  ? C
   C30        1.0     0.858209     0.389832     0.052920    Uiso  ? C
   C31        1.0     0.957773     0.443786     0.045949    Uiso  ? C
   C32        1.0     0.958706     0.554926     0.043837    Uiso  ? C
   C33        1.0     0.859622     0.609833     0.048873    Uiso  ? C
   C34        1.0     0.056695     0.721791     0.043096    Uiso  ? C
   C35        1.0     0.155528     0.777757     0.045291    Uiso  ? C
   C36        1.0     0.156434     0.888705     0.048275    Uiso  ? C
   C37        1.0     0.056217     0.944248     0.049249    Uiso  ? C
   C38        1.0     0.254493     0.721276     0.047618    Uiso  ? C
   C39        1.0     0.353720     0.775397     0.054813    Uiso  ? C
   C40        1.0     0.356325     0.887048     0.055918    Uiso  ? C
   C41        1.0     0.256757     0.943604     0.051860    Uiso  ? C
   C42        1.0     0.450463     0.715366     0.063695    Uiso  ? C
   C43        1.0     0.554879     0.881934     0.067391    Uiso  ? C
   C44        1.0     0.456670     0.942118     0.061341    Uiso  ? C
   C45        1.0     0.757216     0.882761     0.060706    Uiso  ? C
   C46        1.0     0.656008     0.939095     0.065574    Uiso  ? C
   C47        1.0     0.858369     0.722798     0.050144    Uiso  ? C
   C48        1.0     0.957132     0.777604     0.046678    Uiso  ? C
   C49        1.0     0.956512     0.888650     0.050094    Uiso  ? C
   C50        1.0     0.855553     0.942331     0.055408    Uiso  ? C
   C51        1.0     0.662339     0.395415     0.072376    Uiso  ? C
   C52        1.0     0.549958     0.770637     0.073315    Uiso  ? C
   N1         1.0     0.451137     0.390444     0.060520    Uiso  ? N
   N2         1.0     0.447080     0.607194     0.063156    Uiso  ? N
   N3         1.0     0.765157     0.558235     0.057333    Uiso  ? N
   N4         1.0     0.761026     0.774026     0.059296    Uiso  ? N
   Fe1        1.0     0.657126     0.667973     0.086012    Uiso  ? Fe
   Ni1        1.0     0.552052     0.490320     0.086462    Uiso  ? Ni
   O1         1.0     0.613005     0.580969     0.144817    Uiso  ? O
