
#======================================================================
# CRYSTAL DATA
#----------------------------------------------------------------------
data_VESTA_phase_1

_chemical_name_common                  'CONTCAR                               '
_cell_length_a                         12.331300
_cell_length_b                         12.829200
_cell_length_c                         19.994400
_cell_angle_alpha                      89.996696
_cell_angle_beta                       89.998299
_cell_angle_gamma                      89.999496
_cell_volume                           3163.128245
_space_group_name_H-M_alt              'P 1'
_space_group_IT_number                 1

loop_
_space_group_symop_operation_xyz
   'x, y, z'

loop_
   _atom_site_label
   _atom_site_occupancy
   _atom_site_fract_x
   _atom_site_fract_y
   _atom_site_fract_z
   _atom_site_adp_type
   _atom_site_U_iso_or_equiv
   _atom_site_type_symbol
   C1         1.0     0.055644     0.053998     0.050421    Uiso  ? C
   C2         1.0     0.156211     0.108978     0.050391    Uiso  ? C
   C3         1.0     0.155982     0.219755     0.048954    Uiso  ? C
   C4         1.0     0.055834     0.275168     0.047775    Uiso  ? C
   C5         1.0     0.256697     0.054097     0.052680    Uiso  ? C
   C6         1.0     0.357070     0.109821     0.056247    Uiso  ? C
   C7         1.0     0.356490     0.221919     0.055495    Uiso  ? C
   C8         1.0     0.255681     0.275382     0.050351    Uiso  ? C
   C9         1.0     0.456850     0.053621     0.060543    Uiso  ? C
   C10        1.0     0.556222     0.111879     0.063841    Uiso  ? C
   C11        1.0     0.556144     0.225467     0.064681    Uiso  ? C
   C12        1.0     0.455008     0.281571     0.060126    Uiso  ? C
   C13        1.0     0.655760     0.051738     0.063694    Uiso  ? C
   C14        1.0     0.754945     0.109995     0.060231    Uiso  ? C
   C15        1.0     0.755306     0.222803     0.060510    Uiso  ? C
   C16        1.0     0.657135     0.283965     0.066150    Uiso  ? C
   C17        1.0     0.854592     0.053320     0.055871    Uiso  ? C
   C18        1.0     0.955119     0.108900     0.052269    Uiso  ? C
   C19        1.0     0.955499     0.220333     0.051143    Uiso  ? C
   C20        1.0     0.855969     0.277018     0.054682    Uiso  ? C
   C21        1.0     0.056906     0.386217     0.045315    Uiso  ? C
   C22        1.0     0.155719     0.442316     0.044468    Uiso  ? C
   C23        1.0     0.155427     0.553202     0.043477    Uiso  ? C
   C24        1.0     0.057111     0.609830     0.043167    Uiso  ? C
   C25        1.0     0.255024     0.386482     0.048076    Uiso  ? C
   C26        1.0     0.353692     0.441192     0.052575    Uiso  ? C
   C27        1.0     0.352500     0.554188     0.053271    Uiso  ? C
   C28        1.0     0.253825     0.609163     0.047046    Uiso  ? C
   C29        1.0     0.762283     0.448319     0.060391    Uiso  ? C
   C30        1.0     0.858787     0.388466     0.052648    Uiso  ? C
   C31        1.0     0.958190     0.442618     0.046723    Uiso  ? C
   C32        1.0     0.958804     0.553783     0.045467    Uiso  ? C
   C33        1.0     0.860036     0.608668     0.050820    Uiso  ? C
   C34        1.0     0.056414     0.720727     0.044765    Uiso  ? C
   C35        1.0     0.155098     0.776756     0.046444    Uiso  ? C
   C36        1.0     0.156087     0.887730     0.048765    Uiso  ? C
   C37        1.0     0.055922     0.943162     0.049481    Uiso  ? C
   C38        1.0     0.253905     0.720266     0.048415    Uiso  ? C
   C39        1.0     0.353131     0.774492     0.054396    Uiso  ? C
   C40        1.0     0.355894     0.886181     0.055688    Uiso  ? C
   C41        1.0     0.256462     0.942638     0.052016    Uiso  ? C
   C42        1.0     0.449428     0.714589     0.062773    Uiso  ? C
   C43        1.0     0.554584     0.880770     0.066356    Uiso  ? C
   C44        1.0     0.456444     0.940993     0.060957    Uiso  ? C
   C45        1.0     0.756763     0.881339     0.059774    Uiso  ? C
   C46        1.0     0.655757     0.938014     0.064502    Uiso  ? C
   C47        1.0     0.858314     0.721570     0.051357    Uiso  ? C
   C48        1.0     0.956929     0.776492     0.048033    Uiso  ? C
   C49        1.0     0.956208     0.887576     0.050518    Uiso  ? C
   C50        1.0     0.855122     0.941049     0.055159    Uiso  ? C
   C51        1.0     0.662235     0.395573     0.070361    Uiso  ? C
   C52        1.0     0.549983     0.769076     0.070803    Uiso  ? C
   N1         1.0     0.450792     0.389963     0.059158    Uiso  ? N
   N2         1.0     0.447129     0.606228     0.062807    Uiso  ? N
   N3         1.0     0.765451     0.556697     0.059074    Uiso  ? N
   N4         1.0     0.760549     0.772237     0.058398    Uiso  ? N
   Fe1        1.0     0.653082     0.664386     0.075671    Uiso  ? Fe
   Ni1        1.0     0.554461     0.495744     0.075590    Uiso  ? Ni
   H1         1.0     0.641358     0.690748     0.146960    Uiso  ? H
   H2         1.0     0.611267     0.574035     0.127230    Uiso  ? H
