
#======================================================================
# CRYSTAL DATA
#----------------------------------------------------------------------
data_VESTA_phase_1

_chemical_name_common                  'CONTCAR                               '
_cell_length_a                         12.331300
_cell_length_b                         12.829200
_cell_length_c                         19.994400
_cell_angle_alpha                      89.996696
_cell_angle_beta                       89.998299
_cell_angle_gamma                      89.999496
_cell_volume                           3163.128245
_space_group_name_H-M_alt              'P 1'
_space_group_IT_number                 1

loop_
_space_group_symop_operation_xyz
   'x, y, z'

loop_
   _atom_site_label
   _atom_site_occupancy
   _atom_site_fract_x
   _atom_site_fract_y
   _atom_site_fract_z
   _atom_site_adp_type
   _atom_site_U_iso_or_equiv
   _atom_site_type_symbol
   C1         1.0     0.054909     0.053234     0.045734    Uiso  ? C
   C2         1.0     0.155408     0.107987     0.045508    Uiso  ? C
   C3         1.0     0.154792     0.218896     0.044502    Uiso  ? C
   C4         1.0     0.054587     0.274708     0.045070    Uiso  ? C
   C5         1.0     0.256023     0.052649     0.047170    Uiso  ? C
   C6         1.0     0.356345     0.108319     0.050865    Uiso  ? C
   C7         1.0     0.355509     0.220436     0.049535    Uiso  ? C
   C8         1.0     0.254654     0.274298     0.044584    Uiso  ? C
   C9         1.0     0.456107     0.051949     0.055929    Uiso  ? C
   C10        1.0     0.555160     0.110338     0.060574    Uiso  ? C
   C11        1.0     0.555001     0.223449     0.061619    Uiso  ? C
   C12        1.0     0.454138     0.279693     0.054373    Uiso  ? C
   C13        1.0     0.654974     0.050830     0.061695    Uiso  ? C
   C14        1.0     0.754278     0.108914     0.058278    Uiso  ? C
   C15        1.0     0.754546     0.221348     0.059915    Uiso  ? C
   C16        1.0     0.655889     0.281304     0.066066    Uiso  ? C
   C17        1.0     0.854279     0.053233     0.052650    Uiso  ? C
   C18        1.0     0.954523     0.108711     0.049023    Uiso  ? C
   C19        1.0     0.954445     0.220008     0.049444    Uiso  ? C
   C20        1.0     0.854654     0.276416     0.054810    Uiso  ? C
   C21        1.0     0.054908     0.385802     0.042559    Uiso  ? C
   C22        1.0     0.154004     0.441428     0.039354    Uiso  ? C
   C23        1.0     0.153523     0.552328     0.037447    Uiso  ? C
   C24        1.0     0.054535     0.608805     0.038065    Uiso  ? C
   C25        1.0     0.253889     0.385394     0.041733    Uiso  ? C
   C26        1.0     0.353002     0.439948     0.044760    Uiso  ? C
   C27        1.0     0.351951     0.553233     0.045980    Uiso  ? C
   C28        1.0     0.252597     0.607989     0.039842    Uiso  ? C
   C29        1.0     0.759110     0.447922     0.063958    Uiso  ? C
   C30        1.0     0.856254     0.388047     0.054326    Uiso  ? C
   C31        1.0     0.955551     0.442247     0.045994    Uiso  ? C
   C32        1.0     0.955530     0.553325     0.043338    Uiso  ? C
   C33        1.0     0.855642     0.607957     0.050620    Uiso  ? C
   C34        1.0     0.055051     0.719865     0.038217    Uiso  ? C
   C35        1.0     0.154424     0.775537     0.039354    Uiso  ? C
   C36        1.0     0.155446     0.886571     0.042197    Uiso  ? C
   C37        1.0     0.055281     0.942325     0.043543    Uiso  ? C
   C38        1.0     0.253771     0.719046     0.041632    Uiso  ? C
   C39        1.0     0.353683     0.772645     0.049040    Uiso  ? C
   C40        1.0     0.355745     0.884435     0.050425    Uiso  ? C
   C41        1.0     0.256001     0.941176     0.046071    Uiso  ? C
   C42        1.0     0.450724     0.712376     0.058981    Uiso  ? C
   C43        1.0     0.554269     0.878838     0.064768    Uiso  ? C
   C44        1.0     0.456024     0.939288     0.056747    Uiso  ? C
   C45        1.0     0.757179     0.883059     0.058150    Uiso  ? C
   C46        1.0     0.655201     0.937680     0.063514    Uiso  ? C
   C47        1.0     0.856506     0.721731     0.048885    Uiso  ? C
   C48        1.0     0.955611     0.775859     0.042105    Uiso  ? C
   C49        1.0     0.955448     0.886946     0.044815    Uiso  ? C
   C50        1.0     0.855144     0.941585     0.050961    Uiso  ? C
   C51        1.0     0.660088     0.391835     0.073233    Uiso  ? C
   C52        1.0     0.549948     0.767168     0.071662    Uiso  ? C
   N1         1.0     0.450318     0.387913     0.051657    Uiso  ? N
   N2         1.0     0.446354     0.603999     0.057627    Uiso  ? N
   N3         1.0     0.761530     0.556603     0.062641    Uiso  ? N
   N4         1.0     0.761994     0.775602     0.059539    Uiso  ? N
   Fe1        1.0     0.668478     0.683776     0.106349    Uiso  ? Fe
   Ni1        1.0     0.548278     0.486666     0.080485    Uiso  ? Ni
   O1         1.0     0.597504     0.573438     0.153327    Uiso  ? O
   O2         1.0     0.749651     0.716948     0.182446    Uiso  ? O
   H1         1.0     0.731440     0.666042     0.216945    Uiso  ? H
   H2         1.0     0.530462     0.595866     0.174881    Uiso  ? H
