
#======================================================================
# CRYSTAL DATA
#----------------------------------------------------------------------
data_VESTA_phase_1

_chemical_name_common                  '1h\(2)                                '
_cell_length_a                         12.331300
_cell_length_b                         12.829200
_cell_length_c                         19.994400
_cell_angle_alpha                      89.996696
_cell_angle_beta                       89.998299
_cell_angle_gamma                      89.999496
_cell_volume                           3163.128245
_space_group_name_H-M_alt              'P 1'
_space_group_IT_number                 1

loop_
_space_group_symop_operation_xyz
   'x, y, z'

loop_
   _atom_site_label
   _atom_site_occupancy
   _atom_site_fract_x
   _atom_site_fract_y
   _atom_site_fract_z
   _atom_site_adp_type
   _atom_site_U_iso_or_equiv
   _atom_site_type_symbol
   C1         1.0     0.055930     0.054984     0.051576    Uiso  ? C
   C2         1.0     0.156351     0.110118     0.051819    Uiso  ? C
   C3         1.0     0.156164     0.220808     0.050927    Uiso  ? C
   C4         1.0     0.056206     0.276160     0.049792    Uiso  ? C
   C5         1.0     0.256847     0.055281     0.053932    Uiso  ? C
   C6         1.0     0.357130     0.110939     0.057247    Uiso  ? C
   C7         1.0     0.356454     0.222890     0.056951    Uiso  ? C
   C8         1.0     0.255759     0.276541     0.052716    Uiso  ? C
   C9         1.0     0.457046     0.054849     0.060611    Uiso  ? C
   C10        1.0     0.556559     0.113057     0.062827    Uiso  ? C
   C11        1.0     0.556670     0.226736     0.063186    Uiso  ? C
   C12        1.0     0.454720     0.282797     0.060736    Uiso  ? C
   C13        1.0     0.655989     0.052668     0.062738    Uiso  ? C
   C14        1.0     0.755158     0.110919     0.060025    Uiso  ? C
   C15        1.0     0.755626     0.223763     0.059875    Uiso  ? C
   C16        1.0     0.657441     0.285042     0.063371    Uiso  ? C
   C17        1.0     0.854936     0.054270     0.056613    Uiso  ? C
   C18        1.0     0.955434     0.109793     0.053362    Uiso  ? C
   C19        1.0     0.956003     0.221147     0.052495    Uiso  ? C
   C20        1.0     0.856687     0.277754     0.055460    Uiso  ? C
   C21        1.0     0.057513     0.387227     0.047763    Uiso  ? C
   C22        1.0     0.156040     0.443399     0.047303    Uiso  ? C
   C23        1.0     0.155849     0.554186     0.046161    Uiso  ? C
   C24        1.0     0.057570     0.610952     0.045651    Uiso  ? C
   C25        1.0     0.255015     0.387640     0.051187    Uiso  ? C
   C26        1.0     0.353653     0.442163     0.055558    Uiso  ? C
   C27        1.0     0.353025     0.555427     0.055408    Uiso  ? C
   C28        1.0     0.254120     0.610205     0.049566    Uiso  ? C
   C29        1.0     0.763796     0.448324     0.060300    Uiso  ? C
   C30        1.0     0.860345     0.389097     0.054452    Uiso  ? C
   C31        1.0     0.959222     0.443626     0.049397    Uiso  ? C
   C32        1.0     0.959370     0.554915     0.048570    Uiso  ? C
   C33        1.0     0.860861     0.609908     0.054314    Uiso  ? C
   C34        1.0     0.056810     0.721775     0.046604    Uiso  ? C
   C35        1.0     0.155205     0.777919     0.047730    Uiso  ? C
   C36        1.0     0.156253     0.888853     0.049797    Uiso  ? C
   C37        1.0     0.056148     0.944237     0.050539    Uiso  ? C
   C38        1.0     0.253573     0.721433     0.050078    Uiso  ? C
   C39        1.0     0.352147     0.776029     0.055442    Uiso  ? C
   C40        1.0     0.355737     0.887599     0.056411    Uiso  ? C
   C41        1.0     0.256363     0.943972     0.053050    Uiso  ? C
   C42        1.0     0.448728     0.716940     0.061542    Uiso  ? C
   C43        1.0     0.554653     0.881481     0.064437    Uiso  ? C
   C44        1.0     0.456448     0.942393     0.060780    Uiso  ? C
   C45        1.0     0.757354     0.881991     0.060678    Uiso  ? C
   C46        1.0     0.656005     0.938762     0.063573    Uiso  ? C
   C47        1.0     0.859435     0.722634     0.054722    Uiso  ? C
   C48        1.0     0.957673     0.777531     0.050183    Uiso  ? C
   C49        1.0     0.956611     0.888622     0.052003    Uiso  ? C
   C50        1.0     0.855537     0.942080     0.056403    Uiso  ? C
   C51        1.0     0.662668     0.397375     0.065172    Uiso  ? C
   C52        1.0     0.548875     0.770049     0.066975    Uiso  ? C
   N1         1.0     0.450174     0.390603     0.060790    Uiso  ? N
   N2         1.0     0.448049     0.608159     0.061984    Uiso  ? N
   N3         1.0     0.765815     0.556991     0.061161    Uiso  ? N
   N4         1.0     0.761987     0.773193     0.060939    Uiso  ? N
   Fe1        1.0     0.649870     0.658708     0.069506    Uiso  ? Fe
   Ni1        1.0     0.557601     0.500396     0.066705    Uiso  ? Ni
