
#======================================================================
# CRYSTAL DATA
#----------------------------------------------------------------------
data_VESTA_phase_1

_chemical_name_common                  'CONTCAR\(2)\(3)                       '
_cell_length_a                         12.331300
_cell_length_b                         12.829200
_cell_length_c                         19.994400
_cell_angle_alpha                      89.996696
_cell_angle_beta                       89.998299
_cell_angle_gamma                      89.999496
_cell_volume                           3163.128245
_space_group_name_H-M_alt              'P 1'
_space_group_IT_number                 1

loop_
_space_group_symop_operation_xyz
   'x, y, z'

loop_
   _atom_site_label
   _atom_site_occupancy
   _atom_site_fract_x
   _atom_site_fract_y
   _atom_site_fract_z
   _atom_site_adp_type
   _atom_site_U_iso_or_equiv
   _atom_site_type_symbol
   C1         1.0     0.055754     0.054759     0.051935    Uiso  ? C
   C2         1.0     0.156061     0.110161     0.051761    Uiso  ? C
   C3         1.0     0.156464     0.221003     0.050865    Uiso  ? C
   C4         1.0     0.056465     0.276022     0.049980    Uiso  ? C
   C5         1.0     0.256413     0.055535     0.052964    Uiso  ? C
   C6         1.0     0.356951     0.111134     0.055818    Uiso  ? C
   C7         1.0     0.357388     0.222690     0.055841    Uiso  ? C
   C8         1.0     0.256609     0.276544     0.051745    Uiso  ? C
   C9         1.0     0.456635     0.055076     0.058985    Uiso  ? C
   C10        1.0     0.557195     0.111142     0.062082    Uiso  ? C
   C11        1.0     0.557547     0.223354     0.063575    Uiso  ? C
   C12        1.0     0.457317     0.280417     0.060334    Uiso  ? C
   C13        1.0     0.656916     0.052108     0.062007    Uiso  ? C
   C14        1.0     0.756078     0.109855     0.059354    Uiso  ? C
   C15        1.0     0.756558     0.222234     0.059332    Uiso  ? C
   C16        1.0     0.658131     0.281637     0.064545    Uiso  ? C
   C17        1.0     0.855258     0.053391     0.056362    Uiso  ? C
   C18        1.0     0.955485     0.109381     0.053429    Uiso  ? C
   C19        1.0     0.956105     0.220842     0.052263    Uiso  ? C
   C20        1.0     0.856607     0.277115     0.054505    Uiso  ? C
   C21        1.0     0.057271     0.387257     0.048346    Uiso  ? C
   C22        1.0     0.156264     0.443077     0.047595    Uiso  ? C
   C23        1.0     0.156106     0.554696     0.046864    Uiso  ? C
   C24        1.0     0.056999     0.610372     0.046685    Uiso  ? C
   C25        1.0     0.255843     0.387435     0.049638    Uiso  ? C
   C26        1.0     0.354714     0.443132     0.052639    Uiso  ? C
   C27        1.0     0.354627     0.555797     0.051584    Uiso  ? C
   C28        1.0     0.254809     0.611080     0.048286    Uiso  ? C
   C29        1.0     0.760949     0.447757     0.058729    Uiso  ? C
   C30        1.0     0.858461     0.388930     0.052721    Uiso  ? C
   C31        1.0     0.958171     0.443190     0.049059    Uiso  ? C
   C32        1.0     0.958381     0.554210     0.048329    Uiso  ? C
   C33        1.0     0.858685     0.608327     0.052330    Uiso  ? C
   C34        1.0     0.056073     0.721418     0.047533    Uiso  ? C
   C35        1.0     0.154597     0.777713     0.047828    Uiso  ? C
   C36        1.0     0.155489     0.888862     0.049657    Uiso  ? C
   C37        1.0     0.055533     0.943868     0.051010    Uiso  ? C
   C38        1.0     0.253748     0.722123     0.048232    Uiso  ? C
   C39        1.0     0.352280     0.777714     0.051768    Uiso  ? C
   C40        1.0     0.355065     0.888634     0.053759    Uiso  ? C
   C41        1.0     0.255611     0.944477     0.051740    Uiso  ? C
   C42        1.0     0.449983     0.720461     0.058874    Uiso  ? C
   C43        1.0     0.554654     0.884772     0.064021    Uiso  ? C
   C44        1.0     0.455805     0.943337     0.058786    Uiso  ? C
   C45        1.0     0.756636     0.881646     0.060089    Uiso  ? C
   C46        1.0     0.656538     0.939526     0.063044    Uiso  ? C
   C47        1.0     0.857639     0.721627     0.053330    Uiso  ? C
   C48        1.0     0.956459     0.776727     0.050405    Uiso  ? C
   C49        1.0     0.956060     0.887834     0.052313    Uiso  ? C
   C50        1.0     0.855188     0.940947     0.056298    Uiso  ? C
   C51        1.0     0.454883     0.391685     0.059721    Uiso  ? C
   C52        1.0     0.661037     0.392701     0.068696    Uiso  ? C
   C53        1.0     0.548861     0.774956     0.068118    Uiso  ? C
   C54        1.0     0.453060     0.609273     0.058944    Uiso  ? C
   N1         1.0     0.763165     0.556647     0.058635    Uiso  ? N
   N2         1.0     0.759571     0.771795     0.059360    Uiso  ? N
   Fe1        1.0     0.647640     0.666304     0.073597    Uiso  ? Fe
   Ni1        1.0     0.558296     0.495251     0.079440    Uiso  ? Ni
   H1         1.0     0.608610     0.578051     0.133035    Uiso  ? H
