
#======================================================================
# CRYSTAL DATA
#----------------------------------------------------------------------
data_VESTA_phase_1

_chemical_name_common                  'CONTCAR\(2)\(3)                       '
_cell_length_a                         12.331300
_cell_length_b                         12.829200
_cell_length_c                         19.994400
_cell_angle_alpha                      89.996696
_cell_angle_beta                       89.998299
_cell_angle_gamma                      89.999496
_cell_volume                           3163.128245
_space_group_name_H-M_alt              'P 1'
_space_group_IT_number                 1

loop_
_space_group_symop_operation_xyz
   'x, y, z'

loop_
   _atom_site_label
   _atom_site_occupancy
   _atom_site_fract_x
   _atom_site_fract_y
   _atom_site_fract_z
   _atom_site_adp_type
   _atom_site_U_iso_or_equiv
   _atom_site_type_symbol
   C1         1.0     0.055504     0.054980     0.048933    Uiso  ? C
   C2         1.0     0.155860     0.110159     0.048854    Uiso  ? C
   C3         1.0     0.155974     0.221001     0.047889    Uiso  ? C
   C4         1.0     0.055864     0.276229     0.047305    Uiso  ? C
   C5         1.0     0.256348     0.055352     0.050510    Uiso  ? C
   C6         1.0     0.356733     0.111079     0.053706    Uiso  ? C
   C7         1.0     0.356989     0.222775     0.053356    Uiso  ? C
   C8         1.0     0.256098     0.276482     0.048864    Uiso  ? C
   C9         1.0     0.456417     0.055047     0.057808    Uiso  ? C
   C10        1.0     0.556784     0.111436     0.061236    Uiso  ? C
   C11        1.0     0.557035     0.223486     0.062859    Uiso  ? C
   C12        1.0     0.456856     0.280559     0.058738    Uiso  ? C
   C13        1.0     0.656560     0.052673     0.061160    Uiso  ? C
   C14        1.0     0.755640     0.110329     0.058013    Uiso  ? C
   C15        1.0     0.755981     0.222688     0.058490    Uiso  ? C
   C16        1.0     0.657510     0.281850     0.064358    Uiso  ? C
   C17        1.0     0.855008     0.054048     0.054224    Uiso  ? C
   C18        1.0     0.955248     0.109842     0.050958    Uiso  ? C
   C19        1.0     0.955652     0.221268     0.050353    Uiso  ? C
   C20        1.0     0.856032     0.277562     0.053832    Uiso  ? C
   C21        1.0     0.056344     0.387483     0.045320    Uiso  ? C
   C22        1.0     0.155379     0.443157     0.044176    Uiso  ? C
   C23        1.0     0.155226     0.554747     0.043201    Uiso  ? C
   C24        1.0     0.056133     0.610539     0.042917    Uiso  ? C
   C25        1.0     0.255089     0.387368     0.046844    Uiso  ? C
   C26        1.0     0.353714     0.443133     0.050741    Uiso  ? C
   C27        1.0     0.353418     0.555663     0.050630    Uiso  ? C
   C28        1.0     0.254107     0.610949     0.045520    Uiso  ? C
   C29        1.0     0.759290     0.448307     0.059041    Uiso  ? C
   C30        1.0     0.857402     0.389233     0.052514    Uiso  ? C
   C31        1.0     0.956970     0.443493     0.046952    Uiso  ? C
   C32        1.0     0.957378     0.554617     0.045404    Uiso  ? C
   C33        1.0     0.857354     0.608581     0.049737    Uiso  ? C
   C34        1.0     0.055721     0.721666     0.043672    Uiso  ? C
   C35        1.0     0.154643     0.777698     0.044665    Uiso  ? C
   C36        1.0     0.155541     0.888837     0.046724    Uiso  ? C
   C37        1.0     0.055468     0.944011     0.047748    Uiso  ? C
   C38        1.0     0.254012     0.721956     0.046283    Uiso  ? C
   C39        1.0     0.353065     0.776818     0.051948    Uiso  ? C
   C40        1.0     0.355381     0.888059     0.053179    Uiso  ? C
   C41        1.0     0.255778     0.944144     0.049635    Uiso  ? C
   C42        1.0     0.450997     0.718845     0.061002    Uiso  ? C
   C43        1.0     0.554790     0.884698     0.064620    Uiso  ? C
   C44        1.0     0.455697     0.943223     0.058488    Uiso  ? C
   C45        1.0     0.756626     0.883064     0.058413    Uiso  ? C
   C46        1.0     0.656405     0.940161     0.062528    Uiso  ? C
   C47        1.0     0.856815     0.722330     0.050213    Uiso  ? C
   C48        1.0     0.956049     0.777012     0.046761    Uiso  ? C
   C49        1.0     0.955840     0.888244     0.049042    Uiso  ? C
   C50        1.0     0.855274     0.941892     0.053706    Uiso  ? C
   C51        1.0     0.453916     0.391852     0.059109    Uiso  ? C
   C52        1.0     0.659776     0.392837     0.069943    Uiso  ? C
   C53        1.0     0.549013     0.775062     0.070595    Uiso  ? C
   C54        1.0     0.451982     0.607325     0.061104    Uiso  ? C
   N1         1.0     0.762375     0.556681     0.056743    Uiso  ? N
   N2         1.0     0.759677     0.773942     0.057766    Uiso  ? N
   Fe1        1.0     0.653437     0.671100     0.082274    Uiso  ? Fe
   Ni1        1.0     0.553615     0.491808     0.086948    Uiso  ? Ni
   O1         1.0     0.616054     0.587177     0.156695    Uiso  ? O
   H1         1.0     0.554655     0.615790     0.181454    Uiso  ? H
