
#======================================================================
# CRYSTAL DATA
#----------------------------------------------------------------------
data_VESTA_phase_1

_chemical_name_common                  'CONTCAR\(2)\(3)                       '
_cell_length_a                         12.331300
_cell_length_b                         12.829200
_cell_length_c                         19.994400
_cell_angle_alpha                      89.996696
_cell_angle_beta                       89.998299
_cell_angle_gamma                      89.999496
_cell_volume                           3163.128245
_space_group_name_H-M_alt              'P 1'
_space_group_IT_number                 1

loop_
_space_group_symop_operation_xyz
   'x, y, z'

loop_
   _atom_site_label
   _atom_site_occupancy
   _atom_site_fract_x
   _atom_site_fract_y
   _atom_site_fract_z
   _atom_site_adp_type
   _atom_site_U_iso_or_equiv
   _atom_site_type_symbol
   C1         1.0     0.055700     0.054703     0.051171    Uiso  ? C
   C2         1.0     0.156029     0.109748     0.051475    Uiso  ? C
   C3         1.0     0.155910     0.220528     0.050528    Uiso  ? C
   C4         1.0     0.055812     0.275941     0.048773    Uiso  ? C
   C5         1.0     0.256563     0.054727     0.053168    Uiso  ? C
   C6         1.0     0.356812     0.110374     0.056557    Uiso  ? C
   C7         1.0     0.356695     0.221992     0.056962    Uiso  ? C
   C8         1.0     0.256017     0.275903     0.052246    Uiso  ? C
   C9         1.0     0.456704     0.054464     0.060013    Uiso  ? C
   C10        1.0     0.557095     0.111013     0.062876    Uiso  ? C
   C11        1.0     0.557018     0.222978     0.064514    Uiso  ? C
   C12        1.0     0.456434     0.279594     0.062634    Uiso  ? C
   C13        1.0     0.656913     0.052283     0.062054    Uiso  ? C
   C14        1.0     0.755627     0.110254     0.058691    Uiso  ? C
   C15        1.0     0.755555     0.222958     0.058280    Uiso  ? C
   C16        1.0     0.656806     0.282281     0.063575    Uiso  ? C
   C17        1.0     0.855155     0.053828     0.055388    Uiso  ? C
   C18        1.0     0.955371     0.109701     0.052402    Uiso  ? C
   C19        1.0     0.955465     0.221224     0.051018    Uiso  ? C
   C20        1.0     0.855562     0.277841     0.053139    Uiso  ? C
   C21        1.0     0.056343     0.387194     0.046295    Uiso  ? C
   C22        1.0     0.155675     0.442666     0.046029    Uiso  ? C
   C23        1.0     0.156003     0.554204     0.044825    Uiso  ? C
   C24        1.0     0.057101     0.610179     0.043540    Uiso  ? C
   C25        1.0     0.255198     0.386681     0.049745    Uiso  ? C
   C26        1.0     0.354179     0.441941     0.054093    Uiso  ? C
   C27        1.0     0.354508     0.554341     0.051933    Uiso  ? C
   C28        1.0     0.255300     0.610250     0.047156    Uiso  ? C
   C29        1.0     0.758271     0.449345     0.055197    Uiso  ? C
   C30        1.0     0.856736     0.389518     0.050558    Uiso  ? C
   C31        1.0     0.956960     0.443325     0.046052    Uiso  ? C
   C32        1.0     0.958019     0.554438     0.044196    Uiso  ? C
   C33        1.0     0.858308     0.608798     0.047119    Uiso  ? C
   C34        1.0     0.056636     0.721409     0.044734    Uiso  ? C
   C35        1.0     0.155597     0.777249     0.046546    Uiso  ? C
   C36        1.0     0.156149     0.888329     0.049004    Uiso  ? C
   C37        1.0     0.056068     0.943695     0.049952    Uiso  ? C
   C38        1.0     0.255104     0.721301     0.048087    Uiso  ? C
   C39        1.0     0.354120     0.776096     0.053805    Uiso  ? C
   C40        1.0     0.356068     0.887523     0.055148    Uiso  ? C
   C41        1.0     0.256409     0.943543     0.051995    Uiso  ? C
   C42        1.0     0.452590     0.718371     0.061708    Uiso  ? C
   C43        1.0     0.555462     0.884185     0.065603    Uiso  ? C
   C44        1.0     0.456235     0.942714     0.060132    Uiso  ? C
   C45        1.0     0.757215     0.882371     0.059107    Uiso  ? C
   C46        1.0     0.656962     0.939547     0.063301    Uiso  ? C
   C47        1.0     0.857658     0.722205     0.049490    Uiso  ? C
   C48        1.0     0.957027     0.776905     0.047444    Uiso  ? C
   C49        1.0     0.956483     0.888006     0.050574    Uiso  ? C
   C50        1.0     0.855714     0.941608     0.055013    Uiso  ? C
   C51        1.0     0.453475     0.390328     0.064402    Uiso  ? C
   C52        1.0     0.659226     0.393956     0.066498    Uiso  ? C
   C53        1.0     0.550370     0.774672     0.071279    Uiso  ? C
   C54        1.0     0.452628     0.606990     0.060872    Uiso  ? C
   N1         1.0     0.762625     0.557686     0.052374    Uiso  ? N
   N2         1.0     0.760215     0.773168     0.057148    Uiso  ? N
   Fe1        1.0     0.652933     0.668194     0.081340    Uiso  ? Fe
   Ni1        1.0     0.553979     0.492076     0.093151    Uiso  ? Ni
   O1         1.0     0.612907     0.590667     0.147810    Uiso  ? O
