
#======================================================================
# CRYSTAL DATA
#----------------------------------------------------------------------
data_VESTA_phase_1

_chemical_name_common                  'CONTCAR\(2)\(3)                       '
_cell_length_a                         12.331300
_cell_length_b                         12.829200
_cell_length_c                         19.994400
_cell_angle_alpha                      89.996696
_cell_angle_beta                       89.998299
_cell_angle_gamma                      89.999496
_cell_volume                           3163.128245
_space_group_name_H-M_alt              'P 1'
_space_group_IT_number                 1

loop_
_space_group_symop_operation_xyz
   'x, y, z'

loop_
   _atom_site_label
   _atom_site_occupancy
   _atom_site_fract_x
   _atom_site_fract_y
   _atom_site_fract_z
   _atom_site_adp_type
   _atom_site_U_iso_or_equiv
   _atom_site_type_symbol
   C1         1.0     0.055676     0.053658     0.053186    Uiso  ? C
   C2         1.0     0.155898     0.109357     0.053289    Uiso  ? C
   C3         1.0     0.156681     0.220229     0.053055    Uiso  ? C
   C4         1.0     0.056619     0.275082     0.051872    Uiso  ? C
   C5         1.0     0.256217     0.054903     0.053591    Uiso  ? C
   C6         1.0     0.356730     0.110570     0.055767    Uiso  ? C
   C7         1.0     0.357622     0.222200     0.056721    Uiso  ? C
   C8         1.0     0.256842     0.276039     0.054139    Uiso  ? C
   C9         1.0     0.456319     0.054293     0.057408    Uiso  ? C
   C10        1.0     0.557084     0.110061     0.059952    Uiso  ? C
   C11        1.0     0.557641     0.222069     0.061404    Uiso  ? C
   C12        1.0     0.457877     0.279784     0.060052    Uiso  ? C
   C13        1.0     0.656772     0.051105     0.059940    Uiso  ? C
   C14        1.0     0.756100     0.108423     0.058098    Uiso  ? C
   C15        1.0     0.756914     0.220622     0.057650    Uiso  ? C
   C16        1.0     0.658394     0.279728     0.061244    Uiso  ? C
   C17        1.0     0.855136     0.051731     0.056191    Uiso  ? C
   C18        1.0     0.955403     0.108022     0.054090    Uiso  ? C
   C19        1.0     0.956410     0.219591     0.053051    Uiso  ? C
   C20        1.0     0.856910     0.275786     0.054205    Uiso  ? C
   C21        1.0     0.057714     0.386352     0.050439    Uiso  ? C
   C22        1.0     0.156639     0.442380     0.050265    Uiso  ? C
   C23        1.0     0.156236     0.553843     0.049086    Uiso  ? C
   C24        1.0     0.056448     0.609253     0.048479    Uiso  ? C
   C25        1.0     0.256529     0.387031     0.052554    Uiso  ? C
   C26        1.0     0.355557     0.442977     0.054658    Uiso  ? C
   C27        1.0     0.355679     0.555631     0.052376    Uiso  ? C
   C28        1.0     0.254993     0.610365     0.049603    Uiso  ? C
   C29        1.0     0.761099     0.446093     0.056335    Uiso  ? C
   C30        1.0     0.859008     0.387476     0.052693    Uiso  ? C
   C31        1.0     0.958503     0.442094     0.050356    Uiso  ? C
   C32        1.0     0.957940     0.553009     0.049546    Uiso  ? C
   C33        1.0     0.857249     0.606901     0.051989    Uiso  ? C
   C34        1.0     0.055256     0.720264     0.048873    Uiso  ? C
   C35        1.0     0.153808     0.776664     0.048797    Uiso  ? C
   C36        1.0     0.155003     0.887854     0.050434    Uiso  ? C
   C37        1.0     0.055058     0.942654     0.052127    Uiso  ? C
   C38        1.0     0.253129     0.721321     0.048638    Uiso  ? C
   C39        1.0     0.351461     0.777307     0.050341    Uiso  ? C
   C40        1.0     0.354449     0.888224     0.052338    Uiso  ? C
   C41        1.0     0.255117     0.943812     0.051762    Uiso  ? C
   C42        1.0     0.449471     0.720695     0.055337    Uiso  ? C
   C43        1.0     0.554318     0.884581     0.060768    Uiso  ? C
   C44        1.0     0.455237     0.942806     0.056375    Uiso  ? C
   C45        1.0     0.755718     0.879801     0.059074    Uiso  ? C
   C46        1.0     0.656144     0.938447     0.060845    Uiso  ? C
   C47        1.0     0.856195     0.719960     0.052984    Uiso  ? C
   C48        1.0     0.955363     0.775216     0.051132    Uiso  ? C
   C49        1.0     0.955510     0.886386     0.053120    Uiso  ? C
   C50        1.0     0.854571     0.939190     0.056325    Uiso  ? C
   C51        1.0     0.455967     0.391273     0.060241    Uiso  ? C
   C52        1.0     0.661370     0.390308     0.063427    Uiso  ? C
   C53        1.0     0.548752     0.774799     0.063141    Uiso  ? C
   C54        1.0     0.454288     0.610101     0.056181    Uiso  ? C
   N1         1.0     0.761591     0.555246     0.056025    Uiso  ? N
   N2         1.0     0.757519     0.769375     0.057887    Uiso  ? N
   Fe1        1.0     0.643316     0.666377     0.069661    Uiso  ? Fe
   Ni1        1.0     0.562604     0.495025     0.070993    Uiso  ? Ni
   H1         1.0     0.634649     0.695285     0.140544    Uiso  ? H
   H2         1.0     0.610678     0.587243     0.126927    Uiso  ? H
