
#======================================================================
# CRYSTAL DATA
#----------------------------------------------------------------------
data_VESTA_phase_1

_chemical_name_common                  'CONTCAR\(2)\(3)                       '
_cell_length_a                         12.331300
_cell_length_b                         12.829200
_cell_length_c                         19.994400
_cell_angle_alpha                      89.996696
_cell_angle_beta                       89.998299
_cell_angle_gamma                      89.999496
_cell_volume                           3163.128245
_space_group_name_H-M_alt              'P 1'
_space_group_IT_number                 1

loop_
_space_group_symop_operation_xyz
   'x, y, z'

loop_
   _atom_site_label
   _atom_site_occupancy
   _atom_site_fract_x
   _atom_site_fract_y
   _atom_site_fract_z
   _atom_site_adp_type
   _atom_site_U_iso_or_equiv
   _atom_site_type_symbol
   C1         1.0     0.055342     0.052488     0.045460    Uiso  ? C
   C2         1.0     0.155711     0.107171     0.044980    Uiso  ? C
   C3         1.0     0.155162     0.218097     0.044034    Uiso  ? C
   C4         1.0     0.054983     0.273854     0.044416    Uiso  ? C
   C5         1.0     0.256391     0.051948     0.046474    Uiso  ? C
   C6         1.0     0.356683     0.107619     0.049958    Uiso  ? C
   C7         1.0     0.356313     0.219491     0.049224    Uiso  ? C
   C8         1.0     0.255223     0.273302     0.044340    Uiso  ? C
   C9         1.0     0.456501     0.051456     0.054917    Uiso  ? C
   C10        1.0     0.556311     0.108535     0.059552    Uiso  ? C
   C11        1.0     0.556136     0.220742     0.060793    Uiso  ? C
   C12        1.0     0.455914     0.277438     0.055059    Uiso  ? C
   C13        1.0     0.656233     0.050177     0.060704    Uiso  ? C
   C14        1.0     0.755277     0.108026     0.057517    Uiso  ? C
   C15        1.0     0.755098     0.220453     0.058539    Uiso  ? C
   C16        1.0     0.656251     0.279368     0.063870    Uiso  ? C
   C17        1.0     0.855029     0.052440     0.052380    Uiso  ? C
   C18        1.0     0.955077     0.107887     0.048485    Uiso  ? C
   C19        1.0     0.954792     0.219230     0.048436    Uiso  ? C
   C20        1.0     0.854950     0.275540     0.053326    Uiso  ? C
   C21        1.0     0.054783     0.385150     0.042386    Uiso  ? C
   C22        1.0     0.153815     0.440446     0.039634    Uiso  ? C
   C23        1.0     0.153275     0.552018     0.038281    Uiso  ? C
   C24        1.0     0.054322     0.608072     0.039054    Uiso  ? C
   C25        1.0     0.253521     0.384099     0.041679    Uiso  ? C
   C26        1.0     0.351948     0.439713     0.045186    Uiso  ? C
   C27        1.0     0.351072     0.551916     0.044689    Uiso  ? C
   C28        1.0     0.252508     0.607976     0.040116    Uiso  ? C
   C29        1.0     0.757980     0.446602     0.061174    Uiso  ? C
   C30        1.0     0.855811     0.387421     0.052784    Uiso  ? C
   C31        1.0     0.955368     0.441524     0.045760    Uiso  ? C
   C32        1.0     0.955133     0.552594     0.043854    Uiso  ? C
   C33        1.0     0.854972     0.606784     0.051135    Uiso  ? C
   C34        1.0     0.055322     0.719345     0.039430    Uiso  ? C
   C35        1.0     0.154916     0.774881     0.039855    Uiso  ? C
   C36        1.0     0.155778     0.885980     0.042332    Uiso  ? C
   C37        1.0     0.055759     0.941530     0.043831    Uiso  ? C
   C38        1.0     0.254535     0.718836     0.041275    Uiso  ? C
   C39        1.0     0.354980     0.772484     0.047725    Uiso  ? C
   C40        1.0     0.356291     0.884072     0.049474    Uiso  ? C
   C41        1.0     0.256447     0.940635     0.045574    Uiso  ? C
   C42        1.0     0.453586     0.713459     0.057112    Uiso  ? C
   C43        1.0     0.555489     0.880423     0.063820    Uiso  ? C
   C44        1.0     0.456470     0.939157     0.055592    Uiso  ? C
   C45        1.0     0.757914     0.882679     0.058079    Uiso  ? C
   C46        1.0     0.656466     0.937705     0.062762    Uiso  ? C
   C47        1.0     0.856310     0.721056     0.049851    Uiso  ? C
   C48        1.0     0.955962     0.775108     0.043442    Uiso  ? C
   C49        1.0     0.955970     0.886142     0.045570    Uiso  ? C
   C50        1.0     0.855861     0.940735     0.051252    Uiso  ? C
   C51        1.0     0.452401     0.388629     0.054363    Uiso  ? C
   C52        1.0     0.658054     0.390637     0.069902    Uiso  ? C
   C53        1.0     0.551342     0.769709     0.070541    Uiso  ? C
   C54        1.0     0.450014     0.601998     0.055393    Uiso  ? C
   N1         1.0     0.760560     0.555353     0.062188    Uiso  ? N
   N2         1.0     0.762039     0.775027     0.059671    Uiso  ? N
   Fe1        1.0     0.667479     0.684569     0.106866    Uiso  ? Fe
   Ni1        1.0     0.548984     0.489219     0.084406    Uiso  ? Ni
   O1         1.0     0.584835     0.584150     0.156923    Uiso  ? O
   O2         1.0     0.751117     0.714139     0.181982    Uiso  ? O
   H1         1.0     0.729519     0.664908     0.216770    Uiso  ? H
   H2         1.0     0.518138     0.615140     0.173970    Uiso  ? H
