
#======================================================================
# CRYSTAL DATA
#----------------------------------------------------------------------
data_VESTA_phase_1

_chemical_name_common                  'CONTCAR\(2)\(3)                       '
_cell_length_a                         12.331300
_cell_length_b                         12.829200
_cell_length_c                         19.994400
_cell_angle_alpha                      89.996696
_cell_angle_beta                       89.998299
_cell_angle_gamma                      89.999496
_cell_volume                           3163.128245
_space_group_name_H-M_alt              'P 1'
_space_group_IT_number                 1

loop_
_space_group_symop_operation_xyz
   'x, y, z'

loop_
   _atom_site_label
   _atom_site_occupancy
   _atom_site_fract_x
   _atom_site_fract_y
   _atom_site_fract_z
   _atom_site_adp_type
   _atom_site_U_iso_or_equiv
   _atom_site_type_symbol
   C1         1.0     0.055804     0.054669     0.047877    Uiso  ? C
   C2         1.0     0.156113     0.109978     0.048306    Uiso  ? C
   C3         1.0     0.156344     0.220870     0.048036    Uiso  ? C
   C4         1.0     0.056244     0.276097     0.047031    Uiso  ? C
   C5         1.0     0.256483     0.055044     0.049849    Uiso  ? C
   C6         1.0     0.356825     0.110731     0.052713    Uiso  ? C
   C7         1.0     0.357172     0.222299     0.053322    Uiso  ? C
   C8         1.0     0.256506     0.276430     0.049963    Uiso  ? C
   C9         1.0     0.456594     0.054765     0.055704    Uiso  ? C
   C10        1.0     0.557090     0.110790     0.058450    Uiso  ? C
   C11        1.0     0.557399     0.222581     0.060489    Uiso  ? C
   C12        1.0     0.457231     0.279623     0.058396    Uiso  ? C
   C13        1.0     0.656920     0.052448     0.057668    Uiso  ? C
   C14        1.0     0.755870     0.109940     0.054568    Uiso  ? C
   C15        1.0     0.756160     0.222210     0.054833    Uiso  ? C
   C16        1.0     0.657474     0.280909     0.060803    Uiso  ? C
   C17        1.0     0.855339     0.053689     0.051493    Uiso  ? C
   C18        1.0     0.955552     0.109585     0.049052    Uiso  ? C
   C19        1.0     0.955922     0.221063     0.048512    Uiso  ? C
   C20        1.0     0.856125     0.277273     0.050780    Uiso  ? C
   C21        1.0     0.056830     0.387343     0.046049    Uiso  ? C
   C22        1.0     0.156034     0.443058     0.046904    Uiso  ? C
   C23        1.0     0.156171     0.554429     0.046503    Uiso  ? C
   C24        1.0     0.056912     0.610139     0.044847    Uiso  ? C
   C25        1.0     0.255860     0.387378     0.049671    Uiso  ? C
   C26        1.0     0.354730     0.442982     0.054345    Uiso  ? C
   C27        1.0     0.355049     0.555302     0.055384    Uiso  ? C
   C28        1.0     0.255363     0.610512     0.049581    Uiso  ? C
   C29        1.0     0.759195     0.447952     0.055786    Uiso  ? C
   C30        1.0     0.857336     0.388929     0.049707    Uiso  ? C
   C31        1.0     0.957343     0.443252     0.046360    Uiso  ? C
   C32        1.0     0.957883     0.554244     0.045611    Uiso  ? C
   C33        1.0     0.857529     0.608066     0.048758    Uiso  ? C
   C34        1.0     0.056181     0.721175     0.045289    Uiso  ? C
   C35        1.0     0.155011     0.777237     0.046200    Uiso  ? C
   C36        1.0     0.155845     0.888398     0.046987    Uiso  ? C
   C37        1.0     0.055783     0.943623     0.047186    Uiso  ? C
   C38        1.0     0.254385     0.721484     0.048544    Uiso  ? C
   C39        1.0     0.353258     0.776646     0.052127    Uiso  ? C
   C40        1.0     0.355603     0.887900     0.052021    Uiso  ? C
   C41        1.0     0.255977     0.943835     0.049225    Uiso  ? C
   C42        1.0     0.451299     0.719264     0.061373    Uiso  ? C
   C43        1.0     0.555192     0.885207     0.060912    Uiso  ? C
   C44        1.0     0.455825     0.943207     0.055965    Uiso  ? C
   C45        1.0     0.756826     0.882812     0.055328    Uiso  ? C
   C46        1.0     0.656725     0.940048     0.058820    Uiso  ? C
   C47        1.0     0.857111     0.721726     0.049108    Uiso  ? C
   C48        1.0     0.956350     0.776499     0.046954    Uiso  ? C
   C49        1.0     0.956198     0.887820     0.048164    Uiso  ? C
   C50        1.0     0.855586     0.941603     0.051427    Uiso  ? C
   C51        1.0     0.454748     0.390512     0.060793    Uiso  ? C
   C52        1.0     0.659818     0.391727     0.066608    Uiso  ? C
   C53        1.0     0.549317     0.776116     0.067178    Uiso  ? C
   C54        1.0     0.453731     0.607876     0.065536    Uiso  ? C
   N1         1.0     0.762213     0.556079     0.054962    Uiso  ? N
   N2         1.0     0.759425     0.773739     0.054638    Uiso  ? N
   Fe1        1.0     0.652054     0.672755     0.079627    Uiso  ? Fe
   Ni1        1.0     0.555625     0.487185     0.092734    Uiso  ? Ni
   O1         1.0     0.608539     0.544961     0.170818    Uiso  ? O
   O2         1.0     0.636462     0.651216     0.168102    Uiso  ? O
