
#======================================================================
# CRYSTAL DATA
#----------------------------------------------------------------------
data_VESTA_phase_1

_chemical_name_common                  'POSCAR\(2)                            '
_cell_length_a                         12.331300
_cell_length_b                         12.829200
_cell_length_c                         19.994400
_cell_angle_alpha                      89.996696
_cell_angle_beta                       89.998299
_cell_angle_gamma                      89.999496
_cell_volume                           3163.128245
_space_group_name_H-M_alt              'P 1'
_space_group_IT_number                 1

loop_
_space_group_symop_operation_xyz
   'x, y, z'

loop_
   _atom_site_label
   _atom_site_occupancy
   _atom_site_fract_x
   _atom_site_fract_y
   _atom_site_fract_z
   _atom_site_adp_type
   _atom_site_U_iso_or_equiv
   _atom_site_type_symbol
   C1         1.0     0.055864     0.054544     0.055777    Uiso  ? C
   C2         1.0     0.155992     0.110463     0.055789    Uiso  ? C
   C3         1.0     0.156843     0.221345     0.055774    Uiso  ? C
   C4         1.0     0.056960     0.276088     0.055755    Uiso  ? C
   C5         1.0     0.256135     0.055937     0.055800    Uiso  ? C
   C6         1.0     0.356696     0.111665     0.055772    Uiso  ? C
   C7         1.0     0.357627     0.223249     0.055744    Uiso  ? C
   C8         1.0     0.257062     0.277257     0.055761    Uiso  ? C
   C9         1.0     0.456180     0.055613     0.055743    Uiso  ? C
   C10        1.0     0.557227     0.110987     0.055701    Uiso  ? C
   C11        1.0     0.557875     0.222491     0.055688    Uiso  ? C
   C12        1.0     0.458171     0.280509     0.055696    Uiso  ? C
   C13        1.0     0.657058     0.052175     0.055665    Uiso  ? C
   C14        1.0     0.756524     0.109083     0.055684    Uiso  ? C
   C15        1.0     0.757432     0.221015     0.055697    Uiso  ? C
   C16        1.0     0.658832     0.279474     0.055667    Uiso  ? C
   C17        1.0     0.855439     0.052554     0.055702    Uiso  ? C
   C18        1.0     0.955794     0.108926     0.055742    Uiso  ? C
   C19        1.0     0.956925     0.220387     0.055740    Uiso  ? C
   C20        1.0     0.857430     0.276339     0.055718    Uiso  ? C
   C21        1.0     0.057934     0.387503     0.055750    Uiso  ? C
   C22        1.0     0.156931     0.443513     0.055770    Uiso  ? C
   C23        1.0     0.156555     0.554962     0.055782    Uiso  ? C
   C24        1.0     0.056688     0.610143     0.055771    Uiso  ? C
   C25        1.0     0.256800     0.388306     0.055760    Uiso  ? C
   C26        1.0     0.356185     0.444112     0.055727    Uiso  ? C
   C27        1.0     0.357040     0.557304     0.055733    Uiso  ? C
   C28        1.0     0.255907     0.611375     0.055775    Uiso  ? C
   C29        1.0     0.761061     0.445703     0.055646    Uiso  ? C
   C30        1.0     0.859517     0.387867     0.055700    Uiso  ? C
   C31        1.0     0.958667     0.442923     0.055723    Uiso  ? C
   C32        1.0     0.957553     0.554101     0.055722    Uiso  ? C
   C33        1.0     0.856703     0.607652     0.055664    Uiso  ? C
   C34        1.0     0.055351     0.721135     0.055779    Uiso  ? C
   C35        1.0     0.153798     0.777595     0.055801    Uiso  ? C
   C36        1.0     0.154967     0.888734     0.055812    Uiso  ? C
   C37        1.0     0.055162     0.943477     0.055786    Uiso  ? C
   C38        1.0     0.253087     0.722429     0.055780    Uiso  ? C
   C39        1.0     0.350916     0.778748     0.055741    Uiso  ? C
   C40        1.0     0.354204     0.889500     0.055767    Uiso  ? C
   C41        1.0     0.254909     0.944945     0.055809    Uiso  ? C
   C42        1.0     0.449396     0.722615     0.055680    Uiso  ? C
   C43        1.0     0.554280     0.886512     0.055659    Uiso  ? C
   C44        1.0     0.455007     0.944407     0.055731    Uiso  ? C
   C45        1.0     0.755699     0.881069     0.055638    Uiso  ? C
   C46        1.0     0.656422     0.940024     0.055639    Uiso  ? C
   C47        1.0     0.856149     0.720777     0.055672    Uiso  ? C
   C48        1.0     0.955567     0.775928     0.055738    Uiso  ? C
   C49        1.0     0.955674     0.887112     0.055742    Uiso  ? C
   C50        1.0     0.854772     0.940161     0.055685    Uiso  ? C
   C51        1.0     0.456082     0.391710     0.055678    Uiso  ? C
   C52        1.0     0.661665     0.389540     0.055634    Uiso  ? C
   C53        1.0     0.548126     0.777606     0.055638    Uiso  ? C
   C54        1.0     0.456717     0.611825     0.055687    Uiso  ? C
   N1         1.0     0.760092     0.555206     0.055618    Uiso  ? N
   N2         1.0     0.757640     0.770847     0.055621    Uiso  ? N
   Fe1        1.0     0.641209     0.666905     0.055614    Uiso  ? Fe
   Ni1        1.0     0.564876     0.494228     0.055636    Uiso  ? Ni
