
#======================================================================
# CRYSTAL DATA
#----------------------------------------------------------------------
data_VESTA_phase_1

_chemical_name_common                  'CONTCAR                               '
_cell_length_a                         12.331300
_cell_length_b                         12.829200
_cell_length_c                         19.994400
_cell_angle_alpha                      89.996696
_cell_angle_beta                       89.998299
_cell_angle_gamma                      89.999496
_cell_volume                           3163.128245
_space_group_name_H-M_alt              'P 1'
_space_group_IT_number                 1

loop_
_space_group_symop_operation_xyz
   'x, y, z'

loop_
   _atom_site_label
   _atom_site_occupancy
   _atom_site_fract_x
   _atom_site_fract_y
   _atom_site_fract_z
   _atom_site_adp_type
   _atom_site_U_iso_or_equiv
   _atom_site_type_symbol
   C1         1.0     0.055828     0.054605     0.053365    Uiso  ? C
   C2         1.0     0.155924     0.110351     0.053452    Uiso  ? C
   C3         1.0     0.156000     0.221150     0.052364    Uiso  ? C
   C4         1.0     0.056121     0.276333     0.051157    Uiso  ? C
   C5         1.0     0.256479     0.055880     0.054896    Uiso  ? C
   C6         1.0     0.356865     0.111685     0.057320    Uiso  ? C
   C7         1.0     0.356591     0.223551     0.056870    Uiso  ? C
   C8         1.0     0.255777     0.276866     0.053197    Uiso  ? C
   C9         1.0     0.456926     0.056144     0.060126    Uiso  ? C
   C10        1.0     0.556828     0.113393     0.062238    Uiso  ? C
   C11        1.0     0.556999     0.227326     0.062907    Uiso  ? C
   C12        1.0     0.455155     0.283246     0.060139    Uiso  ? C
   C13        1.0     0.655577     0.052259     0.061881    Uiso  ? C
   C14        1.0     0.755105     0.109439     0.059324    Uiso  ? C
   C15        1.0     0.756617     0.222138     0.059145    Uiso  ? C
   C16        1.0     0.659207     0.283290     0.063270    Uiso  ? C
   C17        1.0     0.854730     0.053158     0.056634    Uiso  ? C
   C18        1.0     0.955282     0.109070     0.054349    Uiso  ? C
   C19        1.0     0.956332     0.220444     0.053227    Uiso  ? C
   C20        1.0     0.856932     0.276621     0.055022    Uiso  ? C
   C21        1.0     0.056803     0.387805     0.049141    Uiso  ? C
   C22        1.0     0.155770     0.443614     0.048719    Uiso  ? C
   C23        1.0     0.156432     0.554700     0.048086    Uiso  ? C
   C24        1.0     0.057297     0.610281     0.047608    Uiso  ? C
   C25        1.0     0.255005     0.387698     0.051214    Uiso  ? C
   C26        1.0     0.353787     0.442190     0.054366    Uiso  ? C
   C27        1.0     0.356093     0.555516     0.054422    Uiso  ? C
   C28        1.0     0.255884     0.610429     0.050326    Uiso  ? C
   C29        1.0     0.760504     0.444697     0.058061    Uiso  ? C
   C30        1.0     0.858693     0.388060     0.053011    Uiso  ? C
   C31        1.0     0.957790     0.443738     0.049229    Uiso  ? C
   C32        1.0     0.957946     0.554732     0.048441    Uiso  ? C
   C33        1.0     0.858289     0.609910     0.051312    Uiso  ? C
   C34        1.0     0.056874     0.721443     0.048782    Uiso  ? C
   C35        1.0     0.155554     0.777380     0.049998    Uiso  ? C
   C36        1.0     0.155865     0.888589     0.051828    Uiso  ? C
   C37        1.0     0.055811     0.943721     0.052514    Uiso  ? C
   C38        1.0     0.254924     0.721423     0.051020    Uiso  ? C
   C39        1.0     0.353362     0.777571     0.055099    Uiso  ? C
   C40        1.0     0.355045     0.889034     0.056398    Uiso  ? C
   C41        1.0     0.255615     0.944652     0.054133    Uiso  ? C
   C42        1.0     0.451670     0.721534     0.061233    Uiso  ? C
   C43        1.0     0.552966     0.883248     0.063945    Uiso  ? C
   C44        1.0     0.455402     0.943875     0.060273    Uiso  ? C
   C45        1.0     0.756310     0.880757     0.059125    Uiso  ? C
   C46        1.0     0.655444     0.938077     0.062464    Uiso  ? C
   C47        1.0     0.858834     0.722209     0.052540    Uiso  ? C
   C48        1.0     0.957299     0.777311     0.050808    Uiso  ? C
   C49        1.0     0.956230     0.888038     0.052955    Uiso  ? C
   C50        1.0     0.854793     0.940868     0.056225    Uiso  ? C
   C51        1.0     0.455820     0.609209     0.061408    Uiso  ? C
   C52        1.0     0.757704     0.557793     0.056453    Uiso  ? C
   N1         1.0     0.450218     0.391106     0.059728    Uiso  ? N
   N2         1.0     0.664889     0.390427     0.065904    Uiso  ? N
   N3         1.0     0.547620     0.776707     0.067221    Uiso  ? N
   N4         1.0     0.760458     0.771313     0.057630    Uiso  ? N
   Fe1        1.0     0.645129     0.661407     0.066324    Uiso  ? Fe
   Ni1        1.0     0.559788     0.497800     0.072679    Uiso  ? Ni
   H1         1.0     0.618341     0.580874     0.124584    Uiso  ? H
