
#======================================================================
# CRYSTAL DATA
#----------------------------------------------------------------------
data_VESTA_phase_1

_chemical_name_common                  'CONTCAR                               '
_cell_length_a                         12.331300
_cell_length_b                         12.829200
_cell_length_c                         19.994400
_cell_angle_alpha                      89.996696
_cell_angle_beta                       89.998299
_cell_angle_gamma                      89.999496
_cell_volume                           3163.128245
_space_group_name_H-M_alt              'P 1'
_space_group_IT_number                 1

loop_
_space_group_symop_operation_xyz
   'x, y, z'

loop_
   _atom_site_label
   _atom_site_occupancy
   _atom_site_fract_x
   _atom_site_fract_y
   _atom_site_fract_z
   _atom_site_adp_type
   _atom_site_U_iso_or_equiv
   _atom_site_type_symbol
   C1         1.0     0.056084     0.055183     0.049656    Uiso  ? C
   C2         1.0     0.156348     0.110634     0.049595    Uiso  ? C
   C3         1.0     0.155970     0.221328     0.048305    Uiso  ? C
   C4         1.0     0.055900     0.276804     0.047721    Uiso  ? C
   C5         1.0     0.257085     0.055929     0.051629    Uiso  ? C
   C6         1.0     0.357413     0.111784     0.054738    Uiso  ? C
   C7         1.0     0.356791     0.223864     0.053722    Uiso  ? C
   C8         1.0     0.255678     0.276902     0.049102    Uiso  ? C
   C9         1.0     0.457346     0.055880     0.059009    Uiso  ? C
   C10        1.0     0.556825     0.113661     0.062083    Uiso  ? C
   C11        1.0     0.556851     0.227805     0.062849    Uiso  ? C
   C12        1.0     0.455155     0.283986     0.058229    Uiso  ? C
   C13        1.0     0.655496     0.052806     0.061965    Uiso  ? C
   C14        1.0     0.754976     0.110129     0.058544    Uiso  ? C
   C15        1.0     0.756286     0.222708     0.058993    Uiso  ? C
   C16        1.0     0.658910     0.283691     0.064281    Uiso  ? C
   C17        1.0     0.854971     0.054253     0.054422    Uiso  ? C
   C18        1.0     0.955460     0.109919     0.051460    Uiso  ? C
   C19        1.0     0.956129     0.221190     0.050847    Uiso  ? C
   C20        1.0     0.856645     0.277305     0.054289    Uiso  ? C
   C21        1.0     0.056074     0.388079     0.045622    Uiso  ? C
   C22        1.0     0.155040     0.443834     0.044276    Uiso  ? C
   C23        1.0     0.155488     0.554944     0.043515    Uiso  ? C
   C24        1.0     0.056599     0.610933     0.043705    Uiso  ? C
   C25        1.0     0.254285     0.387615     0.046917    Uiso  ? C
   C26        1.0     0.352602     0.442436     0.050754    Uiso  ? C
   C27        1.0     0.353939     0.555107     0.051657    Uiso  ? C
   C28        1.0     0.254713     0.610605     0.046263    Uiso  ? C
   C29        1.0     0.759229     0.445257     0.060469    Uiso  ? C
   C30        1.0     0.857907     0.388637     0.053108    Uiso  ? C
   C31        1.0     0.956836     0.444250     0.047435    Uiso  ? C
   C32        1.0     0.957322     0.555382     0.046235    Uiso  ? C
   C33        1.0     0.857669     0.610707     0.050833    Uiso  ? C
   C34        1.0     0.057280     0.722108     0.044644    Uiso  ? C
   C35        1.0     0.156233     0.777853     0.045994    Uiso  ? C
   C36        1.0     0.156482     0.888973     0.048089    Uiso  ? C
   C37        1.0     0.056368     0.944408     0.048602    Uiso  ? C
   C38        1.0     0.255474     0.721557     0.047750    Uiso  ? C
   C39        1.0     0.354588     0.776641     0.053893    Uiso  ? C
   C40        1.0     0.355858     0.888355     0.054954    Uiso  ? C
   C41        1.0     0.256437     0.944539     0.051191    Uiso  ? C
   C42        1.0     0.452972     0.719543     0.062068    Uiso  ? C
   C43        1.0     0.553605     0.882256     0.065161    Uiso  ? C
   C44        1.0     0.456090     0.943274     0.059782    Uiso  ? C
   C45        1.0     0.757095     0.882840     0.057922    Uiso  ? C
   C46        1.0     0.655483     0.938480     0.062944    Uiso  ? C
   C47        1.0     0.859560     0.723507     0.050318    Uiso  ? C
   C48        1.0     0.957972     0.778209     0.047136    Uiso  ? C
   C49        1.0     0.956681     0.889003     0.049257    Uiso  ? C
   C50        1.0     0.855554     0.942423     0.053428    Uiso  ? C
   C51        1.0     0.453275     0.607108     0.061445    Uiso  ? C
   C52        1.0     0.758249     0.557713     0.059844    Uiso  ? C
   N1         1.0     0.449745     0.392174     0.057209    Uiso  ? N
   N2         1.0     0.663831     0.390893     0.068472    Uiso  ? N
   N3         1.0     0.548733     0.774932     0.070215    Uiso  ? N
   N4         1.0     0.762296     0.774573     0.057126    Uiso  ? N
   Fe1        1.0     0.661316     0.669371     0.087082    Uiso  ? Fe
   Ni1        1.0     0.555488     0.497653     0.077333    Uiso  ? Ni
   O1         1.0     0.608466     0.582393     0.154413    Uiso  ? O
   H1         1.0     0.543915     0.613758     0.174573    Uiso  ? H
