
#======================================================================
# CRYSTAL DATA
#----------------------------------------------------------------------
data_VESTA_phase_1

_chemical_name_common                  'CONTCAR                               '
_cell_length_a                         12.331300
_cell_length_b                         12.829200
_cell_length_c                         19.994400
_cell_angle_alpha                      89.996696
_cell_angle_beta                       89.998299
_cell_angle_gamma                      89.999496
_cell_volume                           3163.128245
_space_group_name_H-M_alt              'P 1'
_space_group_IT_number                 1

loop_
_space_group_symop_operation_xyz
   'x, y, z'

loop_
   _atom_site_label
   _atom_site_occupancy
   _atom_site_fract_x
   _atom_site_fract_y
   _atom_site_fract_z
   _atom_site_adp_type
   _atom_site_U_iso_or_equiv
   _atom_site_type_symbol
   C1         1.0     0.055503     0.054160     0.051851    Uiso  ? C
   C2         1.0     0.155638     0.109730     0.051375    Uiso  ? C
   C3         1.0     0.155566     0.220513     0.050444    Uiso  ? C
   C4         1.0     0.055669     0.275789     0.050363    Uiso  ? C
   C5         1.0     0.256238     0.055147     0.052487    Uiso  ? C
   C6         1.0     0.356639     0.110957     0.055042    Uiso  ? C
   C7         1.0     0.356250     0.222844     0.054401    Uiso  ? C
   C8         1.0     0.255307     0.276108     0.050770    Uiso  ? C
   C9         1.0     0.456638     0.055371     0.058387    Uiso  ? C
   C10        1.0     0.556361     0.112804     0.061557    Uiso  ? C
   C11        1.0     0.556393     0.226841     0.062188    Uiso  ? C
   C12        1.0     0.454714     0.282605     0.057724    Uiso  ? C
   C13        1.0     0.655153     0.051658     0.062162    Uiso  ? C
   C14        1.0     0.754716     0.109090     0.060094    Uiso  ? C
   C15        1.0     0.756130     0.221772     0.060656    Uiso  ? C
   C16        1.0     0.658587     0.283061     0.064506    Uiso  ? C
   C17        1.0     0.854392     0.052906     0.056711    Uiso  ? C
   C18        1.0     0.954916     0.108707     0.053850    Uiso  ? C
   C19        1.0     0.955877     0.220020     0.053298    Uiso  ? C
   C20        1.0     0.856521     0.276204     0.056555    Uiso  ? C
   C21        1.0     0.056223     0.387178     0.048596    Uiso  ? C
   C22        1.0     0.155088     0.442928     0.046999    Uiso  ? C
   C23        1.0     0.155615     0.554120     0.046120    Uiso  ? C
   C24        1.0     0.056675     0.609820     0.046512    Uiso  ? C
   C25        1.0     0.254284     0.386883     0.048812    Uiso  ? C
   C26        1.0     0.353024     0.441422     0.051256    Uiso  ? C
   C27        1.0     0.354927     0.554649     0.051527    Uiso  ? C
   C28        1.0     0.254934     0.609842     0.047753    Uiso  ? C
   C29        1.0     0.760328     0.444353     0.062332    Uiso  ? C
   C30        1.0     0.858344     0.387651     0.055582    Uiso  ? C
   C31        1.0     0.957237     0.443242     0.050387    Uiso  ? C
   C32        1.0     0.957464     0.554231     0.049220    Uiso  ? C
   C33        1.0     0.858217     0.609553     0.053992    Uiso  ? C
   C34        1.0     0.056519     0.721008     0.047307    Uiso  ? C
   C35        1.0     0.155270     0.776837     0.047853    Uiso  ? C
   C36        1.0     0.155596     0.888071     0.049664    Uiso  ? C
   C37        1.0     0.055607     0.943344     0.050833    Uiso  ? C
   C38        1.0     0.254593     0.720753     0.048635    Uiso  ? C
   C39        1.0     0.353355     0.776586     0.052970    Uiso  ? C
   C40        1.0     0.354911     0.888103     0.054205    Uiso  ? C
   C41        1.0     0.255433     0.943907     0.051713    Uiso  ? C
   C42        1.0     0.451711     0.720243     0.059126    Uiso  ? C
   C43        1.0     0.552641     0.882283     0.063161    Uiso  ? C
   C44        1.0     0.455172     0.942970     0.058455    Uiso  ? C
   C45        1.0     0.756248     0.880567     0.059444    Uiso  ? C
   C46        1.0     0.655091     0.937546     0.062701    Uiso  ? C
   C47        1.0     0.858579     0.722118     0.053262    Uiso  ? C
   C48        1.0     0.957048     0.777033     0.049983    Uiso  ? C
   C49        1.0     0.955948     0.887743     0.051914    Uiso  ? C
   C50        1.0     0.854646     0.940698     0.055960    Uiso  ? C
   C51        1.0     0.454561     0.607659     0.058410    Uiso  ? C
   C52        1.0     0.758586     0.557183     0.062237    Uiso  ? C
   N1         1.0     0.449696     0.390606     0.056067    Uiso  ? N
   N2         1.0     0.664114     0.390126     0.068369    Uiso  ? N
   N3         1.0     0.547600     0.775602     0.066467    Uiso  ? N
   N4         1.0     0.760744     0.771575     0.058341    Uiso  ? N
   Fe1        1.0     0.647028     0.660597     0.073428    Uiso  ? Fe
   Ni1        1.0     0.558122     0.497168     0.069214    Uiso  ? Ni
   H1         1.0     0.666154     0.668004     0.146065    Uiso  ? H
   H2         1.0     0.607306     0.575891     0.125657    Uiso  ? H
