
#======================================================================
# CRYSTAL DATA
#----------------------------------------------------------------------
data_VESTA_phase_1

_chemical_name_common                  'CONTCAR                               '
_cell_length_a                         12.331300
_cell_length_b                         12.829200
_cell_length_c                         19.994400
_cell_angle_alpha                      89.996696
_cell_angle_beta                       89.998299
_cell_angle_gamma                      89.999496
_cell_volume                           3163.128245
_space_group_name_H-M_alt              'P 1'
_space_group_IT_number                 1

loop_
_space_group_symop_operation_xyz
   'x, y, z'

loop_
   _atom_site_label
   _atom_site_occupancy
   _atom_site_fract_x
   _atom_site_fract_y
   _atom_site_fract_z
   _atom_site_adp_type
   _atom_site_U_iso_or_equiv
   _atom_site_type_symbol
   C1         1.0     0.056982     0.055650     0.048842    Uiso  ? C
   C2         1.0     0.156941     0.111393     0.048593    Uiso  ? C
   C3         1.0     0.156703     0.222229     0.048268    Uiso  ? C
   C4         1.0     0.056891     0.277617     0.048229    Uiso  ? C
   C5         1.0     0.257426     0.056601     0.049246    Uiso  ? C
   C6         1.0     0.357771     0.112467     0.050820    Uiso  ? C
   C7         1.0     0.357218     0.224175     0.050540    Uiso  ? C
   C8         1.0     0.256360     0.277858     0.048691    Uiso  ? C
   C9         1.0     0.457784     0.056866     0.052953    Uiso  ? C
   C10        1.0     0.557400     0.114097     0.055029    Uiso  ? C
   C11        1.0     0.557432     0.227843     0.055319    Uiso  ? C
   C12        1.0     0.455672     0.283902     0.052536    Uiso  ? C
   C13        1.0     0.656249     0.053298     0.055817    Uiso  ? C
   C14        1.0     0.755951     0.110492     0.054242    Uiso  ? C
   C15        1.0     0.757266     0.222761     0.054249    Uiso  ? C
   C16        1.0     0.659425     0.283471     0.056624    Uiso  ? C
   C17        1.0     0.856091     0.054913     0.052093    Uiso  ? C
   C18        1.0     0.956526     0.110479     0.049994    Uiso  ? C
   C19        1.0     0.957251     0.221574     0.049674    Uiso  ? C
   C20        1.0     0.857707     0.277227     0.051750    Uiso  ? C
   C21        1.0     0.057239     0.388917     0.047623    Uiso  ? C
   C22        1.0     0.156085     0.444631     0.047074    Uiso  ? C
   C23        1.0     0.156560     0.555783     0.046414    Uiso  ? C
   C24        1.0     0.057028     0.611383     0.046642    Uiso  ? C
   C25        1.0     0.255391     0.388590     0.048165    Uiso  ? C
   C26        1.0     0.354511     0.443040     0.049498    Uiso  ? C
   C27        1.0     0.357005     0.555931     0.050414    Uiso  ? C
   C28        1.0     0.256540     0.611075     0.047365    Uiso  ? C
   C29        1.0     0.760619     0.444224     0.056192    Uiso  ? C
   C30        1.0     0.859345     0.388482     0.051754    Uiso  ? C
   C31        1.0     0.957845     0.444911     0.048930    Uiso  ? C
   C32        1.0     0.957148     0.555973     0.048590    Uiso  ? C
   C33        1.0     0.856216     0.610926     0.052489    Uiso  ? C
   C34        1.0     0.057544     0.722496     0.046853    Uiso  ? C
   C35        1.0     0.156591     0.778078     0.046953    Uiso  ? C
   C36        1.0     0.157028     0.889443     0.047725    Uiso  ? C
   C37        1.0     0.057198     0.944853     0.048476    Uiso  ? C
   C38        1.0     0.255949     0.722106     0.047651    Uiso  ? C
   C39        1.0     0.354750     0.778009     0.049913    Uiso  ? C
   C40        1.0     0.356374     0.889461     0.050280    Uiso  ? C
   C41        1.0     0.256736     0.945382     0.048751    Uiso  ? C
   C42        1.0     0.453952     0.722047     0.054084    Uiso  ? C
   C43        1.0     0.554210     0.883959     0.056124    Uiso  ? C
   C44        1.0     0.456500     0.944564     0.052958    Uiso  ? C
   C45        1.0     0.758331     0.883827     0.055803    Uiso  ? C
   C46        1.0     0.656280     0.939654     0.056813    Uiso  ? C
   C47        1.0     0.858826     0.724547     0.052152    Uiso  ? C
   C48        1.0     0.958286     0.778509     0.048739    Uiso  ? C
   C49        1.0     0.957434     0.889324     0.049662    Uiso  ? C
   C50        1.0     0.856722     0.943246     0.052314    Uiso  ? C
   C51        1.0     0.457343     0.609145     0.055959    Uiso  ? C
   C52        1.0     0.756956     0.555961     0.058540    Uiso  ? C
   N1         1.0     0.450664     0.391363     0.050753    Uiso  ? N
   N2         1.0     0.664548     0.390031     0.058533    Uiso  ? N
   N3         1.0     0.548981     0.777442     0.057403    Uiso  ? N
   N4         1.0     0.763314     0.776539     0.057154    Uiso  ? N
   Fe1        1.0     0.651042     0.664793     0.088516    Uiso  ? Fe
   Ni1        1.0     0.560337     0.497786     0.072337    Uiso  ? Ni
   O1         1.0     0.549840     0.485382     0.166155    Uiso  ? O
   O2         1.0     0.654022     0.681511     0.180664    Uiso  ? O
   H1         1.0     0.723883     0.677130     0.203164    Uiso  ? H
   H2         1.0     0.576031     0.550593     0.186431    Uiso  ? H
