
#======================================================================
# CRYSTAL DATA
#----------------------------------------------------------------------
data_VESTA_phase_1

_chemical_name_common                  'CONTCAR                               '
_cell_length_a                         12.331300
_cell_length_b                         12.829200
_cell_length_c                         19.994400
_cell_angle_alpha                      89.996696
_cell_angle_beta                       89.998299
_cell_angle_gamma                      89.999496
_cell_volume                           3163.128245
_space_group_name_H-M_alt              'P 1'
_space_group_IT_number                 1

loop_
_space_group_symop_operation_xyz
   'x, y, z'

loop_
   _atom_site_label
   _atom_site_occupancy
   _atom_site_fract_x
   _atom_site_fract_y
   _atom_site_fract_z
   _atom_site_adp_type
   _atom_site_U_iso_or_equiv
   _atom_site_type_symbol
   C1         1.0     0.056291     0.054889     0.051530    Uiso  ? C
   C2         1.0     0.156299     0.110752     0.051718    Uiso  ? C
   C3         1.0     0.156395     0.221541     0.051071    Uiso  ? C
   C4         1.0     0.056595     0.276689     0.049977    Uiso  ? C
   C5         1.0     0.256722     0.056211     0.053032    Uiso  ? C
   C6         1.0     0.357076     0.112088     0.054862    Uiso  ? C
   C7         1.0     0.356771     0.223785     0.054919    Uiso  ? C
   C8         1.0     0.255991     0.277298     0.052294    Uiso  ? C
   C9         1.0     0.457098     0.056611     0.056751    Uiso  ? C
   C10        1.0     0.556956     0.113527     0.058279    Uiso  ? C
   C11        1.0     0.557139     0.227414     0.059046    Uiso  ? C
   C12        1.0     0.455273     0.283385     0.058014    Uiso  ? C
   C13        1.0     0.655687     0.052707     0.057868    Uiso  ? C
   C14        1.0     0.755374     0.109736     0.055748    Uiso  ? C
   C15        1.0     0.756947     0.222063     0.055102    Uiso  ? C
   C16        1.0     0.659252     0.283014     0.057977    Uiso  ? C
   C17        1.0     0.855273     0.053734     0.053881    Uiso  ? C
   C18        1.0     0.955806     0.109418     0.052099    Uiso  ? C
   C19        1.0     0.956939     0.220579     0.051206    Uiso  ? C
   C20        1.0     0.857563     0.276344     0.052276    Uiso  ? C
   C21        1.0     0.057288     0.387986     0.048711    Uiso  ? C
   C22        1.0     0.156035     0.443962     0.048998    Uiso  ? C
   C23        1.0     0.156552     0.555103     0.048786    Uiso  ? C
   C24        1.0     0.057130     0.610629     0.048168    Uiso  ? C
   C25        1.0     0.255277     0.388097     0.051296    Uiso  ? C
   C26        1.0     0.354118     0.442695     0.054270    Uiso  ? C
   C27        1.0     0.356658     0.555788     0.053629    Uiso  ? C
   C28        1.0     0.256100     0.610684     0.050651    Uiso  ? C
   C29        1.0     0.761103     0.443517     0.053788    Uiso  ? C
   C30        1.0     0.859614     0.387481     0.051024    Uiso  ? C
   C31        1.0     0.958125     0.443855     0.048688    Uiso  ? C
   C32        1.0     0.957849     0.554898     0.048346    Uiso  ? C
   C33        1.0     0.857323     0.609779     0.050430    Uiso  ? C
   C34        1.0     0.056921     0.721774     0.049046    Uiso  ? C
   C35        1.0     0.155646     0.777619     0.050056    Uiso  ? C
   C36        1.0     0.156098     0.888917     0.051154    Uiso  ? C
   C37        1.0     0.056214     0.944113     0.051290    Uiso  ? C
   C38        1.0     0.254962     0.721767     0.051041    Uiso  ? C
   C39        1.0     0.353238     0.778124     0.053743    Uiso  ? C
   C40        1.0     0.355195     0.889463     0.054283    Uiso  ? C
   C41        1.0     0.255702     0.945054     0.052726    Uiso  ? C
   C42        1.0     0.452064     0.722356     0.057223    Uiso  ? C
   C43        1.0     0.553093     0.884150     0.058864    Uiso  ? C
   C44        1.0     0.455453     0.944497     0.056527    Uiso  ? C
   C45        1.0     0.756921     0.882121     0.056660    Uiso  ? C
   C46        1.0     0.655483     0.938819     0.058548    Uiso  ? C
   C47        1.0     0.858566     0.722943     0.052133    Uiso  ? C
   C48        1.0     0.957493     0.777588     0.050571    Uiso  ? C
   C49        1.0     0.956533     0.888405     0.051817    Uiso  ? C
   C50        1.0     0.855522     0.941807     0.053940    Uiso  ? C
   C51        1.0     0.456748     0.609823     0.057375    Uiso  ? C
   C52        1.0     0.758345     0.555066     0.053201    Uiso  ? C
   N1         1.0     0.450392     0.391141     0.058983    Uiso  ? N
   N2         1.0     0.664665     0.389820     0.058454    Uiso  ? N
   N3         1.0     0.547423     0.777882     0.060515    Uiso  ? N
   N4         1.0     0.761640     0.773848     0.056723    Uiso  ? N
   Fe1        1.0     0.646443     0.660367     0.071177    Uiso  ? Fe
   Ni1        1.0     0.561619     0.498073     0.071759    Uiso  ? Ni
   O1         1.0     0.593796     0.538212     0.165419    Uiso  ? O
   O2         1.0     0.641525     0.633903     0.163690    Uiso  ? O
