
#======================================================================
# CRYSTAL DATA
#----------------------------------------------------------------------
data_VESTA_phase_1

_chemical_name_common                  '1h\(2)                                '
_cell_length_a                         12.331300
_cell_length_b                         12.829200
_cell_length_c                         19.994400
_cell_angle_alpha                      89.996696
_cell_angle_beta                       89.998299
_cell_angle_gamma                      89.999496
_cell_volume                           3163.128245
_space_group_name_H-M_alt              'P 1'
_space_group_IT_number                 1

loop_
_space_group_symop_operation_xyz
   'x, y, z'

loop_
   _atom_site_label
   _atom_site_occupancy
   _atom_site_fract_x
   _atom_site_fract_y
   _atom_site_fract_z
   _atom_site_adp_type
   _atom_site_U_iso_or_equiv
   _atom_site_type_symbol
   C1         1.0     0.056132     0.054589     0.053486    Uiso  ? C
   C2         1.0     0.156126     0.110428     0.053536    Uiso  ? C
   C3         1.0     0.156132     0.221178     0.053251    Uiso  ? C
   C4         1.0     0.056386     0.276416     0.052913    Uiso  ? C
   C5         1.0     0.256561     0.055899     0.054552    Uiso  ? C
   C6         1.0     0.356880     0.111712     0.056132    Uiso  ? C
   C7         1.0     0.356505     0.223423     0.056159    Uiso  ? C
   C8         1.0     0.255748     0.276923     0.054241    Uiso  ? C
   C9         1.0     0.456980     0.056293     0.057724    Uiso  ? C
   C10        1.0     0.556894     0.113537     0.058822    Uiso  ? C
   C11        1.0     0.557079     0.227336     0.059191    Uiso  ? C
   C12        1.0     0.454978     0.283213     0.058179    Uiso  ? C
   C13        1.0     0.655647     0.052491     0.058729    Uiso  ? C
   C14        1.0     0.755262     0.109596     0.057464    Uiso  ? C
   C15        1.0     0.756759     0.222052     0.057509    Uiso  ? C
   C16        1.0     0.659150     0.283158     0.059282    Uiso  ? C
   C17        1.0     0.855158     0.053465     0.055849    Uiso  ? C
   C18        1.0     0.955721     0.109106     0.054291    Uiso  ? C
   C19        1.0     0.956803     0.220331     0.054017    Uiso  ? C
   C20        1.0     0.857499     0.276198     0.055585    Uiso  ? C
   C21        1.0     0.057119     0.387846     0.052376    Uiso  ? C
   C22        1.0     0.155854     0.443758     0.052329    Uiso  ? C
   C23        1.0     0.156403     0.554772     0.052161    Uiso  ? C
   C24        1.0     0.057185     0.610397     0.051981    Uiso  ? C
   C25        1.0     0.254986     0.387771     0.053891    Uiso  ? C
   C26        1.0     0.353829     0.442128     0.056176    Uiso  ? C
   C27        1.0     0.356269     0.555577     0.056344    Uiso  ? C
   C28        1.0     0.255898     0.610388     0.053764    Uiso  ? C
   C29        1.0     0.761399     0.443501     0.058241    Uiso  ? C
   C30        1.0     0.859677     0.387352     0.055441    Uiso  ? C
   C31        1.0     0.958186     0.443740     0.053283    Uiso  ? C
   C32        1.0     0.957861     0.554829     0.053210    Uiso  ? C
   C33        1.0     0.857775     0.609833     0.055682    Uiso  ? C
   C34        1.0     0.056984     0.721467     0.052255    Uiso  ? C
   C35        1.0     0.155592     0.777390     0.052634    Uiso  ? C
   C36        1.0     0.156004     0.888579     0.053155    Uiso  ? C
   C37        1.0     0.056092     0.943802     0.053283    Uiso  ? C
   C38        1.0     0.254738     0.721436     0.053813    Uiso  ? C
   C39        1.0     0.353011     0.777701     0.056093    Uiso  ? C
   C40        1.0     0.355033     0.889094     0.056120    Uiso  ? C
   C41        1.0     0.255624     0.944702     0.054405    Uiso  ? C
   C42        1.0     0.451577     0.721718     0.058957    Uiso  ? C
   C43        1.0     0.553086     0.883710     0.059598    Uiso  ? C
   C44        1.0     0.455430     0.944214     0.057883    Uiso  ? C
   C45        1.0     0.756949     0.881566     0.057909    Uiso  ? C
   C46        1.0     0.655505     0.938474     0.059139    Uiso  ? C
   C47        1.0     0.858993     0.722641     0.055666    Uiso  ? C
   C48        1.0     0.957620     0.777347     0.053592    Uiso  ? C
   C49        1.0     0.956554     0.888193     0.054060    Uiso  ? C
   C50        1.0     0.855402     0.941512     0.055886    Uiso  ? C
   C51        1.0     0.456690     0.609259     0.059362    Uiso  ? C
   C52        1.0     0.757728     0.555673     0.058697    Uiso  ? C
   N1         1.0     0.450117     0.390635     0.058588    Uiso  ? N
   N2         1.0     0.664725     0.390305     0.060324    Uiso  ? N
   N3         1.0     0.547434     0.777272     0.060965    Uiso  ? N
   N4         1.0     0.761512     0.773115     0.058196    Uiso  ? N
   Fe1        1.0     0.643915     0.658669     0.061488    Uiso  ? Fe
   Ni1        1.0     0.562056     0.499601     0.061238    Uiso  ? Ni
