
#======================================================================
# CRYSTAL DATA
#----------------------------------------------------------------------
data_VESTA_phase_1

_chemical_name_common                  '12456                                 '
_cell_length_a                         12.331300
_cell_length_b                         12.829200
_cell_length_c                         19.994400
_cell_angle_alpha                      89.996696
_cell_angle_beta                       89.998299
_cell_angle_gamma                      89.999496
_cell_volume                           3163.128245
_space_group_name_H-M_alt              'P 1'
_space_group_IT_number                 1

loop_
_space_group_symop_operation_xyz
   'x, y, z'

loop_
   _atom_site_label
   _atom_site_occupancy
   _atom_site_fract_x
   _atom_site_fract_y
   _atom_site_fract_z
   _atom_site_adp_type
   _atom_site_U_iso_or_equiv
   _atom_site_type_symbol
   C1         1.0     0.055760     0.054943     0.049292    Uiso  ? C
   C2         1.0     0.156325     0.110170     0.049715    Uiso  ? C
   C3         1.0     0.155819     0.220974     0.048340    Uiso  ? C
   C4         1.0     0.055724     0.276605     0.047192    Uiso  ? C
   C5         1.0     0.257103     0.055362     0.052193    Uiso  ? C
   C6         1.0     0.357356     0.111458     0.055204    Uiso  ? C
   C7         1.0     0.356406     0.223547     0.054044    Uiso  ? C
   C8         1.0     0.255428     0.276815     0.049461    Uiso  ? C
   C9         1.0     0.457585     0.055623     0.059398    Uiso  ? C
   C10        1.0     0.557021     0.114291     0.061426    Uiso  ? C
   C11        1.0     0.557225     0.229071     0.061749    Uiso  ? C
   C12        1.0     0.454705     0.284139     0.058274    Uiso  ? C
   C13        1.0     0.655589     0.053847     0.060771    Uiso  ? C
   C14        1.0     0.754800     0.111370     0.056982    Uiso  ? C
   C15        1.0     0.755613     0.224000     0.057260    Uiso  ? C
   C16        1.0     0.658639     0.285732     0.062074    Uiso  ? C
   C17        1.0     0.854763     0.054871     0.053096    Uiso  ? C
   C18        1.0     0.955341     0.110045     0.050583    Uiso  ? C
   C19        1.0     0.955758     0.221424     0.049904    Uiso  ? C
   C20        1.0     0.856443     0.277837     0.052761    Uiso  ? C
   C21        1.0     0.055923     0.387669     0.045016    Uiso  ? C
   C22        1.0     0.154834     0.443735     0.044203    Uiso  ? C
   C23        1.0     0.154823     0.554603     0.043791    Uiso  ? C
   C24        1.0     0.056116     0.611092     0.043335    Uiso  ? C
   C25        1.0     0.253814     0.387883     0.047259    Uiso  ? C
   C26        1.0     0.352303     0.442762     0.051839    Uiso  ? C
   C27        1.0     0.352163     0.555312     0.053545    Uiso  ? C
   C28        1.0     0.253589     0.610388     0.047703    Uiso  ? C
   C29        1.0     0.760488     0.447148     0.056891    Uiso  ? C
   C30        1.0     0.858286     0.388911     0.051175    Uiso  ? C
   C31        1.0     0.957193     0.443908     0.046246    Uiso  ? C
   C32        1.0     0.957062     0.555249     0.045080    Uiso  ? C
   C33        1.0     0.857155     0.608816     0.048430    Uiso  ? C
   C34        1.0     0.056208     0.721869     0.044393    Uiso  ? C
   C35        1.0     0.155530     0.777891     0.046621    Uiso  ? C
   C36        1.0     0.156429     0.888791     0.048574    Uiso  ? C
   C37        1.0     0.055978     0.944061     0.048315    Uiso  ? C
   C38        1.0     0.254250     0.721712     0.049360    Uiso  ? C
   C39        1.0     0.353943     0.775325     0.055748    Uiso  ? C
   C40        1.0     0.356532     0.887313     0.056420    Uiso  ? C
   C41        1.0     0.256858     0.943724     0.052166    Uiso  ? C
   C42        1.0     0.451179     0.715291     0.063675    Uiso  ? C
   C43        1.0     0.555140     0.881864     0.065807    Uiso  ? C
   C44        1.0     0.457049     0.942747     0.060816    Uiso  ? C
   C45        1.0     0.756716     0.883978     0.056452    Uiso  ? C
   C46        1.0     0.655652     0.939771     0.062155    Uiso  ? C
   C47        1.0     0.857366     0.722131     0.048652    Uiso  ? C
   C48        1.0     0.956686     0.777091     0.046273    Uiso  ? C
   C49        1.0     0.956062     0.888559     0.048440    Uiso  ? C
   C50        1.0     0.855395     0.942924     0.052024    Uiso  ? C
   C51        1.0     0.550503     0.769845     0.071802    Uiso  ? C
   N1         1.0     0.449010     0.391531     0.058467    Uiso  ? N
   N2         1.0     0.664305     0.394992     0.065089    Uiso  ? N
   N3         1.0     0.760880     0.554799     0.054444    Uiso  ? N
   N4         1.0     0.760751     0.775774     0.055721    Uiso  ? N
   N5         1.0     0.448080     0.605937     0.062994    Uiso  ? N
   Fe1        1.0     0.663699     0.673245     0.087370    Uiso  ? Fe
   Ni1        1.0     0.552719     0.495946     0.078697    Uiso  ? Ni
   O1         1.0     0.614812     0.582289     0.153534    Uiso  ? O
   H1         1.0     0.552305     0.610342     0.177491    Uiso  ? H
