
#======================================================================
# CRYSTAL DATA
#----------------------------------------------------------------------
data_VESTA_phase_1

_chemical_name_common                  'CONTCAR\(5)                           '
_cell_length_a                         12.331300
_cell_length_b                         12.829200
_cell_length_c                         19.994400
_cell_angle_alpha                      89.996696
_cell_angle_beta                       89.998299
_cell_angle_gamma                      89.999496
_cell_volume                           3163.128245
_space_group_name_H-M_alt              'P 1'
_space_group_IT_number                 1

loop_
_space_group_symop_operation_xyz
   'x, y, z'

loop_
   _atom_site_label
   _atom_site_occupancy
   _atom_site_fract_x
   _atom_site_fract_y
   _atom_site_fract_z
   _atom_site_adp_type
   _atom_site_U_iso_or_equiv
   _atom_site_type_symbol
   C1         1.0     0.055518     0.054087     0.055948    Uiso  ? C
   C2         1.0     0.155744     0.110397     0.055577    Uiso  ? C
   C3         1.0     0.156921     0.221256     0.054936    Uiso  ? C
   C4         1.0     0.056882     0.275655     0.053973    Uiso  ? C
   C5         1.0     0.256051     0.056175     0.055717    Uiso  ? C
   C6         1.0     0.356527     0.112420     0.056416    Uiso  ? C
   C7         1.0     0.357663     0.224160     0.056725    Uiso  ? C
   C8         1.0     0.256900     0.277728     0.055338    Uiso  ? C
   C9         1.0     0.456087     0.056560     0.056866    Uiso  ? C
   C10        1.0     0.556773     0.112435     0.058022    Uiso  ? C
   C11        1.0     0.557792     0.224645     0.058966    Uiso  ? C
   C12        1.0     0.458063     0.282398     0.058237    Uiso  ? C
   C13        1.0     0.655150     0.052242     0.057960    Uiso  ? C
   C14        1.0     0.755331     0.108447     0.057263    Uiso  ? C
   C15        1.0     0.757431     0.220431     0.056636    Uiso  ? C
   C16        1.0     0.659605     0.280273     0.058682    Uiso  ? C
   C17        1.0     0.854561     0.051809     0.056881    Uiso  ? C
   C18        1.0     0.955168     0.108202     0.055852    Uiso  ? C
   C19        1.0     0.956995     0.219393     0.054610    Uiso  ? C
   C20        1.0     0.857667     0.275179     0.054656    Uiso  ? C
   C21        1.0     0.057565     0.386910     0.052972    Uiso  ? C
   C22        1.0     0.156257     0.443450     0.053176    Uiso  ? C
   C23        1.0     0.156410     0.554998     0.053015    Uiso  ? C
   C24        1.0     0.056570     0.609636     0.053282    Uiso  ? C
   C25        1.0     0.256076     0.388742     0.054318    Uiso  ? C
   C26        1.0     0.354826     0.445503     0.055183    Uiso  ? C
   C27        1.0     0.356559     0.558429     0.054005    Uiso  ? C
   C28        1.0     0.255451     0.611970     0.053253    Uiso  ? C
   C29        1.0     0.760101     0.442522     0.054806    Uiso  ? C
   C30        1.0     0.859241     0.386244     0.053219    Uiso  ? C
   C31        1.0     0.958177     0.442067     0.052415    Uiso  ? C
   C32        1.0     0.957631     0.552734     0.052866    Uiso  ? C
   C33        1.0     0.857311     0.606697     0.053858    Uiso  ? C
   C34        1.0     0.055846     0.721075     0.054444    Uiso  ? C
   C35        1.0     0.154234     0.777629     0.054322    Uiso  ? C
   C36        1.0     0.154522     0.888749     0.055210    Uiso  ? C
   C37        1.0     0.054402     0.943145     0.056236    Uiso  ? C
   C38        1.0     0.253735     0.722517     0.053485    Uiso  ? C
   C39        1.0     0.352144     0.778692     0.053716    Uiso  ? C
   C40        1.0     0.353748     0.889805     0.054637    Uiso  ? C
   C41        1.0     0.254383     0.945138     0.055088    Uiso  ? C
   C42        1.0     0.451347     0.723255     0.054433    Uiso  ? C
   C43        1.0     0.551839     0.885765     0.056682    Uiso  ? C
   C44        1.0     0.453906     0.945037     0.055889    Uiso  ? C
   C45        1.0     0.753044     0.880401     0.058849    Uiso  ? C
   C46        1.0     0.654151     0.939821     0.058122    Uiso  ? C
   C47        1.0     0.857567     0.718919     0.056757    Uiso  ? C
   C48        1.0     0.955887     0.775705     0.056140    Uiso  ? C
   C49        1.0     0.954566     0.886672     0.057024    Uiso  ? C
   C50        1.0     0.853193     0.939634     0.057755    Uiso  ? C
   C51        1.0     0.454587     0.393734     0.058077    Uiso  ? C
   C52        1.0     0.756270     0.554840     0.053593    Uiso  ? C
   C53        1.0     0.755507     0.767362     0.059617    Uiso  ? C
   C54        1.0     0.457236     0.611236     0.054991    Uiso  ? C
   N1         1.0     0.664311     0.386807     0.059564    Uiso  ? N
   N2         1.0     0.546869     0.779883     0.055946    Uiso  ? N
   Fe1        1.0     0.638190     0.664194     0.058963    Uiso  ? Fe
   Ni1        1.0     0.565860     0.493562     0.063813    Uiso  ? Ni
   H1         1.0     0.633365     0.590640     0.119724    Uiso  ? H
