
#======================================================================
# CRYSTAL DATA
#----------------------------------------------------------------------
data_VESTA_phase_1

_chemical_name_common                  'CONTCAR\(5)                           '
_cell_length_a                         12.331300
_cell_length_b                         12.829200
_cell_length_c                         19.994400
_cell_angle_alpha                      89.996696
_cell_angle_beta                       89.998299
_cell_angle_gamma                      89.999496
_cell_volume                           3163.128245
_space_group_name_H-M_alt              'P 1'
_space_group_IT_number                 1

loop_
_space_group_symop_operation_xyz
   'x, y, z'

loop_
   _atom_site_label
   _atom_site_occupancy
   _atom_site_fract_x
   _atom_site_fract_y
   _atom_site_fract_z
   _atom_site_adp_type
   _atom_site_U_iso_or_equiv
   _atom_site_type_symbol
   C1         1.0     0.055829     0.055110     0.049130    Uiso  ? C
   C2         1.0     0.156125     0.110856     0.049435    Uiso  ? C
   C3         1.0     0.156717     0.221681     0.048186    Uiso  ? C
   C4         1.0     0.056535     0.276337     0.047078    Uiso  ? C
   C5         1.0     0.256550     0.056378     0.051703    Uiso  ? C
   C6         1.0     0.356961     0.112536     0.055017    Uiso  ? C
   C7         1.0     0.357570     0.224445     0.054098    Uiso  ? C
   C8         1.0     0.256594     0.277763     0.049301    Uiso  ? C
   C9         1.0     0.456432     0.056614     0.059372    Uiso  ? C
   C10        1.0     0.556668     0.113306     0.062486    Uiso  ? C
   C11        1.0     0.557308     0.225727     0.063327    Uiso  ? C
   C12        1.0     0.457407     0.283023     0.058808    Uiso  ? C
   C13        1.0     0.655122     0.053070     0.061991    Uiso  ? C
   C14        1.0     0.755200     0.109605     0.057910    Uiso  ? C
   C15        1.0     0.756954     0.221770     0.058069    Uiso  ? C
   C16        1.0     0.659504     0.281943     0.064088    Uiso  ? C
   C17        1.0     0.854861     0.053719     0.053636    Uiso  ? C
   C18        1.0     0.955419     0.109599     0.050622    Uiso  ? C
   C19        1.0     0.956666     0.220580     0.049801    Uiso  ? C
   C20        1.0     0.857080     0.276326     0.052869    Uiso  ? C
   C21        1.0     0.056563     0.387478     0.044966    Uiso  ? C
   C22        1.0     0.155236     0.443773     0.044430    Uiso  ? C
   C23        1.0     0.155431     0.555396     0.043678    Uiso  ? C
   C24        1.0     0.056387     0.610416     0.042997    Uiso  ? C
   C25        1.0     0.254990     0.388641     0.047365    Uiso  ? C
   C26        1.0     0.352937     0.445366     0.051216    Uiso  ? C
   C27        1.0     0.353583     0.557903     0.052406    Uiso  ? C
   C28        1.0     0.254330     0.612313     0.046849    Uiso  ? C
   C29        1.0     0.758918     0.443788     0.057669    Uiso  ? C
   C30        1.0     0.857884     0.387364     0.051027    Uiso  ? C
   C31        1.0     0.957064     0.442863     0.045795    Uiso  ? C
   C32        1.0     0.957582     0.553469     0.044454    Uiso  ? C
   C33        1.0     0.857795     0.607650     0.047890    Uiso  ? C
   C34        1.0     0.056539     0.722166     0.043983    Uiso  ? C
   C35        1.0     0.155122     0.778383     0.045799    Uiso  ? C
   C36        1.0     0.155266     0.889513     0.047817    Uiso  ? C
   C37        1.0     0.055252     0.944278     0.048025    Uiso  ? C
   C38        1.0     0.254444     0.722854     0.048007    Uiso  ? C
   C39        1.0     0.353374     0.777990     0.054109    Uiso  ? C
   C40        1.0     0.354628     0.889382     0.055168    Uiso  ? C
   C41        1.0     0.255328     0.945268     0.051199    Uiso  ? C
   C42        1.0     0.451610     0.721172     0.062692    Uiso  ? C
   C43        1.0     0.552259     0.884555     0.065681    Uiso  ? C
   C44        1.0     0.454624     0.944487     0.060178    Uiso  ? C
   C45        1.0     0.754557     0.883585     0.057585    Uiso  ? C
   C46        1.0     0.654384     0.940506     0.063084    Uiso  ? C
   C47        1.0     0.858611     0.720873     0.048469    Uiso  ? C
   C48        1.0     0.956992     0.777373     0.046108    Uiso  ? C
   C49        1.0     0.955268     0.888241     0.048424    Uiso  ? C
   C50        1.0     0.854305     0.941965     0.052760    Uiso  ? C
   C51        1.0     0.453250     0.394809     0.057881    Uiso  ? C
   C52        1.0     0.758111     0.555594     0.055522    Uiso  ? C
   C53        1.0     0.758827     0.772122     0.055942    Uiso  ? C
   C54        1.0     0.453439     0.608707     0.062721    Uiso  ? C
   N1         1.0     0.663695     0.388523     0.067785    Uiso  ? N
   N2         1.0     0.547184     0.777970     0.071069    Uiso  ? N
   Fe1        1.0     0.653932     0.668619     0.081769    Uiso  ? Fe
   Ni1        1.0     0.558403     0.492945     0.079606    Uiso  ? Ni
   O1         1.0     0.617803     0.581634     0.157003    Uiso  ? O
   H1         1.0     0.553441     0.608692     0.179632    Uiso  ? H
