
#======================================================================
# CRYSTAL DATA
#----------------------------------------------------------------------
data_VESTA_phase_1

_chemical_name_common                  'CONTCAR\(5)                           '
_cell_length_a                         12.331300
_cell_length_b                         12.829200
_cell_length_c                         19.994400
_cell_angle_alpha                      89.996696
_cell_angle_beta                       89.998299
_cell_angle_gamma                      89.999496
_cell_volume                           3163.128245
_space_group_name_H-M_alt              'P 1'
_space_group_IT_number                 1

loop_
_space_group_symop_operation_xyz
   'x, y, z'

loop_
   _atom_site_label
   _atom_site_occupancy
   _atom_site_fract_x
   _atom_site_fract_y
   _atom_site_fract_z
   _atom_site_adp_type
   _atom_site_U_iso_or_equiv
   _atom_site_type_symbol
   C1         1.0     0.056162     0.053526     0.046125    Uiso  ? C
   C2         1.0     0.156587     0.108842     0.044895    Uiso  ? C
   C3         1.0     0.156733     0.219768     0.043394    Uiso  ? C
   C4         1.0     0.056344     0.274962     0.044649    Uiso  ? C
   C5         1.0     0.257233     0.053989     0.046174    Uiso  ? C
   C6         1.0     0.357634     0.110020     0.049068    Uiso  ? C
   C7         1.0     0.357923     0.222039     0.046980    Uiso  ? C
   C8         1.0     0.256661     0.275553     0.042311    Uiso  ? C
   C9         1.0     0.457296     0.053860     0.054423    Uiso  ? C
   C10        1.0     0.556754     0.111341     0.059795    Uiso  ? C
   C11        1.0     0.557148     0.224125     0.060220    Uiso  ? C
   C12        1.0     0.457677     0.281014     0.051328    Uiso  ? C
   C13        1.0     0.655291     0.051553     0.062185    Uiso  ? C
   C14        1.0     0.755484     0.108318     0.059257    Uiso  ? C
   C15        1.0     0.756957     0.220380     0.060511    Uiso  ? C
   C16        1.0     0.659006     0.280315     0.065778    Uiso  ? C
   C17        1.0     0.855508     0.052885     0.053872    Uiso  ? C
   C18        1.0     0.955787     0.108538     0.049514    Uiso  ? C
   C19        1.0     0.956514     0.219589     0.049406    Uiso  ? C
   C20        1.0     0.856802     0.275385     0.055064    Uiso  ? C
   C21        1.0     0.055845     0.386093     0.042889    Uiso  ? C
   C22        1.0     0.154571     0.442019     0.038972    Uiso  ? C
   C23        1.0     0.154565     0.553577     0.037884    Uiso  ? C
   C24        1.0     0.055361     0.608938     0.040502    Uiso  ? C
   C25        1.0     0.254543     0.386499     0.039196    Uiso  ? C
   C26        1.0     0.352671     0.443046     0.039742    Uiso  ? C
   C27        1.0     0.353040     0.555354     0.040776    Uiso  ? C
   C28        1.0     0.253701     0.610223     0.038285    Uiso  ? C
   C29        1.0     0.758285     0.442885     0.066406    Uiso  ? C
   C30        1.0     0.857267     0.386687     0.055253    Uiso  ? C
   C31        1.0     0.956266     0.441754     0.047473    Uiso  ? C
   C32        1.0     0.956414     0.552401     0.046250    Uiso  ? C
   C33        1.0     0.857219     0.607127     0.054878    Uiso  ? C
   C34        1.0     0.056632     0.720500     0.040949    Uiso  ? C
   C35        1.0     0.155819     0.776474     0.040335    Uiso  ? C
   C36        1.0     0.156037     0.887498     0.042842    Uiso  ? C
   C37        1.0     0.055759     0.942646     0.044879    Uiso  ? C
   C38        1.0     0.255486     0.720707     0.040334    Uiso  ? C
   C39        1.0     0.355712     0.774802     0.046205    Uiso  ? C
   C40        1.0     0.356139     0.886255     0.048629    Uiso  ? C
   C41        1.0     0.256431     0.942663     0.045411    Uiso  ? C
   C42        1.0     0.454972     0.716958     0.054128    Uiso  ? C
   C43        1.0     0.553560     0.881022     0.063125    Uiso  ? C
   C44        1.0     0.456181     0.941236     0.054838    Uiso  ? C
   C45        1.0     0.756221     0.883863     0.061239    Uiso  ? C
   C46        1.0     0.654919     0.938970     0.064331    Uiso  ? C
   C47        1.0     0.859417     0.719913     0.053263    Uiso  ? C
   C48        1.0     0.957242     0.775973     0.045651    Uiso  ? C
   C49        1.0     0.955916     0.887002     0.047365    Uiso  ? C
   C50        1.0     0.855412     0.941417     0.053329    Uiso  ? C
   C51        1.0     0.453737     0.392622     0.046016    Uiso  ? C
   C52        1.0     0.758886     0.555124     0.069203    Uiso  ? C
   C53        1.0     0.761908     0.773542     0.065604    Uiso  ? C
   C54        1.0     0.453671     0.604821     0.050249    Uiso  ? C
   N1         1.0     0.662608     0.386684     0.072515    Uiso  ? N
   N2         1.0     0.549816     0.773102     0.068072    Uiso  ? N
   Fe1        1.0     0.665674     0.680443     0.108531    Uiso  ? Fe
   Ni1        1.0     0.555000     0.491780     0.072485    Uiso  ? Ni
   O1         1.0     0.575156     0.570100     0.155974    Uiso  ? O
   O2         1.0     0.740686     0.697803     0.186275    Uiso  ? O
   H1         1.0     0.712717     0.643282     0.216033    Uiso  ? H
   H2         1.0     0.503478     0.597477     0.166870    Uiso  ? H
