
#======================================================================
# CRYSTAL DATA
#----------------------------------------------------------------------
data_VESTA_phase_1

_chemical_name_common                  'CONTCAR                               '
_cell_length_a                         12.331300
_cell_length_b                         12.829200
_cell_length_c                         19.994400
_cell_angle_alpha                      89.996696
_cell_angle_beta                       89.998299
_cell_angle_gamma                      89.999496
_cell_volume                           3163.128245
_space_group_name_H-M_alt              'P 1'
_space_group_IT_number                 1

loop_
_space_group_symop_operation_xyz
   'x, y, z'

loop_
   _atom_site_label
   _atom_site_occupancy
   _atom_site_fract_x
   _atom_site_fract_y
   _atom_site_fract_z
   _atom_site_adp_type
   _atom_site_U_iso_or_equiv
   _atom_site_type_symbol
   C1         1.0     0.055819     0.054264     0.052046    Uiso  ? C
   C2         1.0     0.156386     0.109728     0.052126    Uiso  ? C
   C3         1.0     0.156324     0.220599     0.050344    Uiso  ? C
   C4         1.0     0.056409     0.275888     0.049137    Uiso  ? C
   C5         1.0     0.257002     0.055415     0.054580    Uiso  ? C
   C6         1.0     0.357129     0.112027     0.057300    Uiso  ? C
   C7         1.0     0.356566     0.223702     0.055843    Uiso  ? C
   C8         1.0     0.255702     0.276867     0.051222    Uiso  ? C
   C9         1.0     0.457325     0.056841     0.061340    Uiso  ? C
   C10        1.0     0.556508     0.115424     0.063114    Uiso  ? C
   C11        1.0     0.557233     0.229878     0.063234    Uiso  ? C
   C12        1.0     0.454905     0.284463     0.059404    Uiso  ? C
   C13        1.0     0.654994     0.055141     0.062537    Uiso  ? C
   C14        1.0     0.754914     0.111734     0.059165    Uiso  ? C
   C15        1.0     0.756000     0.224233     0.059225    Uiso  ? C
   C16        1.0     0.658826     0.286347     0.063878    Uiso  ? C
   C17        1.0     0.854692     0.054556     0.055741    Uiso  ? C
   C18        1.0     0.955440     0.109448     0.053149    Uiso  ? C
   C19        1.0     0.956300     0.220649     0.051958    Uiso  ? C
   C20        1.0     0.857199     0.277084     0.054416    Uiso  ? C
   C21        1.0     0.057197     0.386698     0.046859    Uiso  ? C
   C22        1.0     0.155688     0.443497     0.046480    Uiso  ? C
   C23        1.0     0.156011     0.554433     0.046398    Uiso  ? C
   C24        1.0     0.057652     0.610674     0.045908    Uiso  ? C
   C25        1.0     0.254590     0.387927     0.049288    Uiso  ? C
   C26        1.0     0.353029     0.442997     0.053561    Uiso  ? C
   C27        1.0     0.353159     0.555243     0.056195    Uiso  ? C
   C28        1.0     0.254731     0.610476     0.050615    Uiso  ? C
   C29        1.0     0.762428     0.446327     0.057245    Uiso  ? C
   C30        1.0     0.859495     0.387895     0.051862    Uiso  ? C
   C31        1.0     0.958662     0.442625     0.047386    Uiso  ? C
   C32        1.0     0.959312     0.553451     0.046613    Uiso  ? C
   C33        1.0     0.860332     0.606708     0.049192    Uiso  ? C
   C34        1.0     0.056634     0.721516     0.047566    Uiso  ? C
   C35        1.0     0.155743     0.777620     0.049945    Uiso  ? C
   C36        1.0     0.156211     0.888634     0.051681    Uiso  ? C
   C37        1.0     0.055634     0.943474     0.051417    Uiso  ? C
   C38        1.0     0.254756     0.721659     0.052475    Uiso  ? C
   C39        1.0     0.354408     0.775796     0.058284    Uiso  ? C
   C40        1.0     0.356386     0.887823     0.058712    Uiso  ? C
   C41        1.0     0.256649     0.943844     0.054751    Uiso  ? C
   C42        1.0     0.451932     0.716264     0.065992    Uiso  ? C
   C43        1.0     0.554532     0.884670     0.066925    Uiso  ? C
   C44        1.0     0.456569     0.943983     0.062833    Uiso  ? C
   C45        1.0     0.754710     0.884344     0.058142    Uiso  ? C
   C46        1.0     0.654560     0.942200     0.063383    Uiso  ? C
   C47        1.0     0.857375     0.719502     0.050320    Uiso  ? C
   C48        1.0     0.956470     0.776254     0.049250    Uiso  ? C
   C49        1.0     0.955313     0.887634     0.051511    Uiso  ? C
   C50        1.0     0.854449     0.942336     0.054901    Uiso  ? C
   C51        1.0     0.551480     0.772616     0.071886    Uiso  ? C
   C52        1.0     0.756885     0.772951     0.055267    Uiso  ? C
   N1         1.0     0.449823     0.391529     0.058563    Uiso  ? N
   N2         1.0     0.449183     0.606312     0.066586    Uiso  ? N
   N3         1.0     0.665158     0.395699     0.067477    Uiso  ? N
   N4         1.0     0.764517     0.553018     0.053658    Uiso  ? N
   Fe1        1.0     0.653017     0.665342     0.071558    Uiso  ? Fe
   Ni1        1.0     0.554242     0.496855     0.078214    Uiso  ? Ni
   H1         1.0     0.612934     0.571597     0.127436    Uiso  ? H
