
#======================================================================
# CRYSTAL DATA
#----------------------------------------------------------------------
data_VESTA_phase_1

_chemical_name_common                  'CONTCAR                               '
_cell_length_a                         12.331300
_cell_length_b                         12.829200
_cell_length_c                         19.994400
_cell_angle_alpha                      89.996696
_cell_angle_beta                       89.998299
_cell_angle_gamma                      89.999496
_cell_volume                           3163.128245
_space_group_name_H-M_alt              'P 1'
_space_group_IT_number                 1

loop_
_space_group_symop_operation_xyz
   'x, y, z'

loop_
   _atom_site_label
   _atom_site_occupancy
   _atom_site_fract_x
   _atom_site_fract_y
   _atom_site_fract_z
   _atom_site_adp_type
   _atom_site_U_iso_or_equiv
   _atom_site_type_symbol
   C1         1.0     0.055580     0.054695     0.050113    Uiso  ? C
   C2         1.0     0.156158     0.110202     0.049936    Uiso  ? C
   C3         1.0     0.155978     0.221082     0.048393    Uiso  ? C
   C4         1.0     0.056030     0.276532     0.047596    Uiso  ? C
   C5         1.0     0.256772     0.055783     0.051997    Uiso  ? C
   C6         1.0     0.356927     0.112423     0.054727    Uiso  ? C
   C7         1.0     0.356329     0.224296     0.053487    Uiso  ? C
   C8         1.0     0.255405     0.277397     0.049059    Uiso  ? C
   C9         1.0     0.456929     0.056891     0.058873    Uiso  ? C
   C10        1.0     0.556145     0.115757     0.061133    Uiso  ? C
   C11        1.0     0.556771     0.229902     0.061348    Uiso  ? C
   C12        1.0     0.454751     0.284986     0.057486    Uiso  ? C
   C13        1.0     0.654644     0.055752     0.061164    Uiso  ? C
   C14        1.0     0.754777     0.112006     0.057838    Uiso  ? C
   C15        1.0     0.755859     0.224154     0.057796    Uiso  ? C
   C16        1.0     0.658751     0.285902     0.062081    Uiso  ? C
   C17        1.0     0.854649     0.055163     0.054378    Uiso  ? C
   C18        1.0     0.955327     0.110068     0.051552    Uiso  ? C
   C19        1.0     0.956002     0.221267     0.050608    Uiso  ? C
   C20        1.0     0.856840     0.277512     0.053349    Uiso  ? C
   C21        1.0     0.056498     0.387342     0.045461    Uiso  ? C
   C22        1.0     0.155198     0.444028     0.044485    Uiso  ? C
   C23        1.0     0.155106     0.554986     0.044482    Uiso  ? C
   C24        1.0     0.056275     0.611101     0.044726    Uiso  ? C
   C25        1.0     0.254122     0.388481     0.046913    Uiso  ? C
   C26        1.0     0.352787     0.443718     0.051014    Uiso  ? C
   C27        1.0     0.352899     0.556002     0.052756    Uiso  ? C
   C28        1.0     0.254018     0.610988     0.047828    Uiso  ? C
   C29        1.0     0.761113     0.446364     0.056629    Uiso  ? C
   C30        1.0     0.858796     0.388298     0.051458    Uiso  ? C
   C31        1.0     0.957777     0.443168     0.046771    Uiso  ? C
   C32        1.0     0.957563     0.554130     0.046094    Uiso  ? C
   C33        1.0     0.857859     0.606966     0.049221    Uiso  ? C
   C34        1.0     0.055785     0.721921     0.046125    Uiso  ? C
   C35        1.0     0.155335     0.777991     0.047621    Uiso  ? C
   C36        1.0     0.155894     0.888972     0.049276    Uiso  ? C
   C37        1.0     0.055380     0.943850     0.049556    Uiso  ? C
   C38        1.0     0.254440     0.722186     0.049552    Uiso  ? C
   C39        1.0     0.354595     0.776070     0.054960    Uiso  ? C
   C40        1.0     0.356286     0.888055     0.055678    Uiso  ? C
   C41        1.0     0.256465     0.944108     0.051990    Uiso  ? C
   C42        1.0     0.452317     0.716180     0.061775    Uiso  ? C
   C43        1.0     0.554559     0.884593     0.064916    Uiso  ? C
   C44        1.0     0.456385     0.944178     0.060100    Uiso  ? C
   C45        1.0     0.754601     0.885800     0.058419    Uiso  ? C
   C46        1.0     0.654361     0.942960     0.062674    Uiso  ? C
   C47        1.0     0.856033     0.719972     0.050561    Uiso  ? C
   C48        1.0     0.955619     0.776543     0.048410    Uiso  ? C
   C49        1.0     0.954856     0.888075     0.050338    Uiso  ? C
   C50        1.0     0.854473     0.943243     0.053910    Uiso  ? C
   C51        1.0     0.552037     0.772407     0.069251    Uiso  ? C
   C52        1.0     0.756702     0.774843     0.057926    Uiso  ? C
   N1         1.0     0.449449     0.392281     0.057260    Uiso  ? N
   N2         1.0     0.449317     0.606911     0.061513    Uiso  ? N
   N3         1.0     0.664536     0.394468     0.064902    Uiso  ? N
   N4         1.0     0.761630     0.553311     0.053694    Uiso  ? N
   Fe1        1.0     0.658778     0.670919     0.086555    Uiso  ? Fe
   Ni1        1.0     0.553416     0.495335     0.078742    Uiso  ? Ni
   O1         1.0     0.616827     0.576512     0.155082    Uiso  ? O
   H1         1.0     0.556160     0.602645     0.181533    Uiso  ? H
