
#======================================================================
# CRYSTAL DATA
#----------------------------------------------------------------------
data_VESTA_phase_1

_chemical_name_common                  'CONTCAR                               '
_cell_length_a                         12.331300
_cell_length_b                         12.829200
_cell_length_c                         19.994400
_cell_angle_alpha                      89.996696
_cell_angle_beta                       89.998299
_cell_angle_gamma                      89.999496
_cell_volume                           3163.128245
_space_group_name_H-M_alt              'P 1'
_space_group_IT_number                 1

loop_
_space_group_symop_operation_xyz
   'x, y, z'

loop_
   _atom_site_label
   _atom_site_occupancy
   _atom_site_fract_x
   _atom_site_fract_y
   _atom_site_fract_z
   _atom_site_adp_type
   _atom_site_U_iso_or_equiv
   _atom_site_type_symbol
   C1         1.0     0.055840     0.054326     0.051909    Uiso  ? C
   C2         1.0     0.156399     0.109537     0.051651    Uiso  ? C
   C3         1.0     0.156182     0.220431     0.050107    Uiso  ? C
   C4         1.0     0.056245     0.275826     0.049070    Uiso  ? C
   C5         1.0     0.257161     0.055090     0.053464    Uiso  ? C
   C6         1.0     0.357296     0.111504     0.056315    Uiso  ? C
   C7         1.0     0.356594     0.223522     0.055375    Uiso  ? C
   C8         1.0     0.255568     0.276586     0.050872    Uiso  ? C
   C9         1.0     0.457558     0.056268     0.060238    Uiso  ? C
   C10        1.0     0.556530     0.115183     0.062842    Uiso  ? C
   C11        1.0     0.557126     0.229767     0.063286    Uiso  ? C
   C12        1.0     0.454737     0.284173     0.059620    Uiso  ? C
   C13        1.0     0.655106     0.055239     0.063059    Uiso  ? C
   C14        1.0     0.754966     0.111595     0.059945    Uiso  ? C
   C15        1.0     0.755988     0.224257     0.059493    Uiso  ? C
   C16        1.0     0.658791     0.286084     0.063623    Uiso  ? C
   C17        1.0     0.854943     0.054805     0.056540    Uiso  ? C
   C18        1.0     0.955529     0.109646     0.053479    Uiso  ? C
   C19        1.0     0.956226     0.220847     0.052259    Uiso  ? C
   C20        1.0     0.856940     0.277292     0.054754    Uiso  ? C
   C21        1.0     0.056811     0.386774     0.046352    Uiso  ? C
   C22        1.0     0.155244     0.443254     0.045420    Uiso  ? C
   C23        1.0     0.155360     0.554372     0.044763    Uiso  ? C
   C24        1.0     0.056746     0.610436     0.044751    Uiso  ? C
   C25        1.0     0.254267     0.387578     0.048487    Uiso  ? C
   C26        1.0     0.352659     0.442603     0.052678    Uiso  ? C
   C27        1.0     0.352787     0.555387     0.053389    Uiso  ? C
   C28        1.0     0.254070     0.610349     0.047956    Uiso  ? C
   C29        1.0     0.761245     0.446427     0.056644    Uiso  ? C
   C30        1.0     0.858978     0.388172     0.052027    Uiso  ? C
   C31        1.0     0.958002     0.442773     0.047075    Uiso  ? C
   C32        1.0     0.958376     0.553597     0.046115    Uiso  ? C
   C33        1.0     0.858671     0.606744     0.048905    Uiso  ? C
   C34        1.0     0.056219     0.721608     0.046107    Uiso  ? C
   C35        1.0     0.155480     0.777487     0.047875    Uiso  ? C
   C36        1.0     0.156236     0.888543     0.050180    Uiso  ? C
   C37        1.0     0.055677     0.943378     0.050999    Uiso  ? C
   C38        1.0     0.254776     0.721507     0.049722    Uiso  ? C
   C39        1.0     0.354682     0.775188     0.055266    Uiso  ? C
   C40        1.0     0.356747     0.887367     0.056244    Uiso  ? C
   C41        1.0     0.256871     0.943475     0.053006    Uiso  ? C
   C42        1.0     0.452472     0.715339     0.061461    Uiso  ? C
   C43        1.0     0.555342     0.883406     0.065117    Uiso  ? C
   C44        1.0     0.457048     0.942975     0.060729    Uiso  ? C
   C45        1.0     0.755386     0.885177     0.061329    Uiso  ? C
   C46        1.0     0.654845     0.942010     0.064437    Uiso  ? C
   C47        1.0     0.856786     0.719912     0.051795    Uiso  ? C
   C48        1.0     0.956102     0.776254     0.048959    Uiso  ? C
   C49        1.0     0.955395     0.887713     0.051859    Uiso  ? C
   C50        1.0     0.854858     0.942785     0.056249    Uiso  ? C
   C51        1.0     0.552497     0.770650     0.067810    Uiso  ? C
   C52        1.0     0.757650     0.773867     0.061227    Uiso  ? C
   N1         1.0     0.449215     0.391720     0.059620    Uiso  ? N
   N2         1.0     0.448635     0.606013     0.061829    Uiso  ? N
   N3         1.0     0.664692     0.395299     0.065857    Uiso  ? N
   N4         1.0     0.763049     0.553541     0.052026    Uiso  ? N
   Fe1        1.0     0.657379     0.667291     0.085990    Uiso  ? Fe
   Ni1        1.0     0.552418     0.495466     0.082350    Uiso  ? Ni
   O1         1.0     0.618134     0.578296     0.145584    Uiso  ? O
