
#======================================================================
# CRYSTAL DATA
#----------------------------------------------------------------------
data_VESTA_phase_1

_chemical_name_common                  'CONTCAR                               '
_cell_length_a                         12.331300
_cell_length_b                         12.829200
_cell_length_c                         19.994400
_cell_angle_alpha                      89.996696
_cell_angle_beta                       89.998299
_cell_angle_gamma                      89.999496
_cell_volume                           3163.128245
_space_group_name_H-M_alt              'P 1'
_space_group_IT_number                 1

loop_
_space_group_symop_operation_xyz
   'x, y, z'

loop_
   _atom_site_label
   _atom_site_occupancy
   _atom_site_fract_x
   _atom_site_fract_y
   _atom_site_fract_z
   _atom_site_adp_type
   _atom_site_U_iso_or_equiv
   _atom_site_type_symbol
   C1         1.0     0.055337     0.053196     0.051966    Uiso  ? C
   C2         1.0     0.155892     0.108586     0.051963    Uiso  ? C
   C3         1.0     0.155876     0.219444     0.050423    Uiso  ? C
   C4         1.0     0.056002     0.274784     0.049539    Uiso  ? C
   C5         1.0     0.256547     0.054270     0.053904    Uiso  ? C
   C6         1.0     0.356655     0.110856     0.056278    Uiso  ? C
   C7         1.0     0.356141     0.222586     0.055047    Uiso  ? C
   C8         1.0     0.255247     0.275713     0.051041    Uiso  ? C
   C9         1.0     0.456941     0.055780     0.059841    Uiso  ? C
   C10        1.0     0.556218     0.114422     0.061866    Uiso  ? C
   C11        1.0     0.556917     0.228886     0.062107    Uiso  ? C
   C12        1.0     0.454466     0.283313     0.058240    Uiso  ? C
   C13        1.0     0.654761     0.054176     0.061770    Uiso  ? C
   C14        1.0     0.754583     0.110670     0.058873    Uiso  ? C
   C15        1.0     0.755628     0.223335     0.058967    Uiso  ? C
   C16        1.0     0.658521     0.285497     0.063134    Uiso  ? C
   C17        1.0     0.854253     0.053295     0.055736    Uiso  ? C
   C18        1.0     0.954970     0.108315     0.053188    Uiso  ? C
   C19        1.0     0.955889     0.219621     0.052214    Uiso  ? C
   C20        1.0     0.856801     0.276242     0.054662    Uiso  ? C
   C21        1.0     0.056858     0.385640     0.047366    Uiso  ? C
   C22        1.0     0.155281     0.442387     0.046773    Uiso  ? C
   C23        1.0     0.155637     0.553300     0.046386    Uiso  ? C
   C24        1.0     0.057231     0.609540     0.046154    Uiso  ? C
   C25        1.0     0.254191     0.386773     0.049265    Uiso  ? C
   C26        1.0     0.352683     0.441747     0.052878    Uiso  ? C
   C27        1.0     0.352861     0.554214     0.054921    Uiso  ? C
   C28        1.0     0.254320     0.609412     0.049761    Uiso  ? C
   C29        1.0     0.762240     0.445764     0.057514    Uiso  ? C
   C30        1.0     0.859271     0.387101     0.052461    Uiso  ? C
   C31        1.0     0.958425     0.441650     0.048096    Uiso  ? C
   C32        1.0     0.958996     0.552376     0.047332    Uiso  ? C
   C33        1.0     0.860026     0.605825     0.050280    Uiso  ? C
   C34        1.0     0.056228     0.720409     0.047525    Uiso  ? C
   C35        1.0     0.155246     0.776555     0.049321    Uiso  ? C
   C36        1.0     0.155715     0.887529     0.051089    Uiso  ? C
   C37        1.0     0.055087     0.942311     0.051272    Uiso  ? C
   C38        1.0     0.254363     0.720575     0.051180    Uiso  ? C
   C39        1.0     0.354045     0.774781     0.056043    Uiso  ? C
   C40        1.0     0.356005     0.886855     0.056809    Uiso  ? C
   C41        1.0     0.256210     0.942703     0.053735    Uiso  ? C
   C42        1.0     0.451377     0.715103     0.062999    Uiso  ? C
   C43        1.0     0.554261     0.883827     0.064655    Uiso  ? C
   C44        1.0     0.456219     0.942958     0.060767    Uiso  ? C
   C45        1.0     0.754266     0.882815     0.058742    Uiso  ? C
   C46        1.0     0.654382     0.940995     0.062543    Uiso  ? C
   C47        1.0     0.857253     0.718168     0.051451    Uiso  ? C
   C48        1.0     0.955941     0.775049     0.049545    Uiso  ? C
   C49        1.0     0.954892     0.886489     0.051706    Uiso  ? C
   C50        1.0     0.853870     0.940960     0.055195    Uiso  ? C
   C51        1.0     0.551486     0.771689     0.067951    Uiso  ? C
   C52        1.0     0.756062     0.770577     0.057125    Uiso  ? C
   N1         1.0     0.449408     0.390344     0.057244    Uiso  ? N
   N2         1.0     0.448923     0.605547     0.064049    Uiso  ? N
   N3         1.0     0.664950     0.394975     0.066568    Uiso  ? N
   N4         1.0     0.764005     0.552746     0.054594    Uiso  ? N
   Fe1        1.0     0.650103     0.665475     0.070524    Uiso  ? Fe
   Ni1        1.0     0.554357     0.496644     0.075077    Uiso  ? Ni
   H1         1.0     0.661907     0.687679     0.142699    Uiso  ? H
   H2         1.0     0.612955     0.573955     0.124593    Uiso  ? H
