
#======================================================================
# CRYSTAL DATA
#----------------------------------------------------------------------
data_VESTA_phase_1

_chemical_name_common                  'CONTCAR                               '
_cell_length_a                         12.331300
_cell_length_b                         12.829200
_cell_length_c                         19.994400
_cell_angle_alpha                      89.996696
_cell_angle_beta                       89.998299
_cell_angle_gamma                      89.999496
_cell_volume                           3163.128245
_space_group_name_H-M_alt              'P 1'
_space_group_IT_number                 1

loop_
_space_group_symop_operation_xyz
   'x, y, z'

loop_
   _atom_site_label
   _atom_site_occupancy
   _atom_site_fract_x
   _atom_site_fract_y
   _atom_site_fract_z
   _atom_site_adp_type
   _atom_site_U_iso_or_equiv
   _atom_site_type_symbol
   C1         1.0     0.056177     0.052808     0.045595    Uiso  ? C
   C2         1.0     0.156659     0.108238     0.045603    Uiso  ? C
   C3         1.0     0.156571     0.219217     0.044392    Uiso  ? C
   C4         1.0     0.056815     0.274749     0.043498    Uiso  ? C
   C5         1.0     0.257237     0.053542     0.047783    Uiso  ? C
   C6         1.0     0.357302     0.109921     0.050746    Uiso  ? C
   C7         1.0     0.356602     0.221659     0.050145    Uiso  ? C
   C8         1.0     0.256147     0.275475     0.045787    Uiso  ? C
   C9         1.0     0.457597     0.055095     0.054718    Uiso  ? C
   C10        1.0     0.556993     0.113905     0.057028    Uiso  ? C
   C11        1.0     0.557506     0.227749     0.057643    Uiso  ? C
   C12        1.0     0.454635     0.281818     0.054867    Uiso  ? C
   C13        1.0     0.655663     0.054211     0.056988    Uiso  ? C
   C14        1.0     0.755701     0.110084     0.053540    Uiso  ? C
   C15        1.0     0.756758     0.222404     0.053346    Uiso  ? C
   C16        1.0     0.659743     0.283931     0.057813    Uiso  ? C
   C17        1.0     0.855427     0.053215     0.050074    Uiso  ? C
   C18        1.0     0.956009     0.108267     0.046905    Uiso  ? C
   C19        1.0     0.956722     0.219555     0.046004    Uiso  ? C
   C20        1.0     0.857505     0.276003     0.048979    Uiso  ? C
   C21        1.0     0.057521     0.385785     0.042073    Uiso  ? C
   C22        1.0     0.156385     0.442156     0.041568    Uiso  ? C
   C23        1.0     0.156731     0.553168     0.041663    Uiso  ? C
   C24        1.0     0.057390     0.608953     0.041776    Uiso  ? C
   C25        1.0     0.255393     0.386632     0.044157    Uiso  ? C
   C26        1.0     0.354821     0.441038     0.049165    Uiso  ? C
   C27        1.0     0.356429     0.554739     0.050676    Uiso  ? C
   C28        1.0     0.256281     0.608909     0.045106    Uiso  ? C
   C29        1.0     0.761618     0.444708     0.055129    Uiso  ? C
   C30        1.0     0.859484     0.387032     0.048325    Uiso  ? C
   C31        1.0     0.958698     0.441625     0.044033    Uiso  ? C
   C32        1.0     0.958233     0.552322     0.043999    Uiso  ? C
   C33        1.0     0.857867     0.604999     0.049201    Uiso  ? C
   C34        1.0     0.056761     0.719903     0.042789    Uiso  ? C
   C35        1.0     0.156232     0.775779     0.043968    Uiso  ? C
   C36        1.0     0.156551     0.886797     0.045224    Uiso  ? C
   C37        1.0     0.055975     0.941711     0.045273    Uiso  ? C
   C38        1.0     0.255858     0.720052     0.046094    Uiso  ? C
   C39        1.0     0.355713     0.774367     0.050938    Uiso  ? C
   C40        1.0     0.357073     0.886421     0.051370    Uiso  ? C
   C41        1.0     0.257035     0.942076     0.047783    Uiso  ? C
   C42        1.0     0.453626     0.715061     0.058244    Uiso  ? C
   C43        1.0     0.555436     0.883233     0.060672    Uiso  ? C
   C44        1.0     0.457080     0.942459     0.055638    Uiso  ? C
   C45        1.0     0.755304     0.884143     0.055353    Uiso  ? C
   C46        1.0     0.655410     0.941348     0.058870    Uiso  ? C
   C47        1.0     0.856898     0.717823     0.048828    Uiso  ? C
   C48        1.0     0.956326     0.774345     0.045035    Uiso  ? C
   C49        1.0     0.955657     0.885952     0.046357    Uiso  ? C
   C50        1.0     0.855227     0.941241     0.050090    Uiso  ? C
   C51        1.0     0.553317     0.771556     0.065390    Uiso  ? C
   C52        1.0     0.757785     0.772534     0.056618    Uiso  ? C
   N1         1.0     0.449478     0.388635     0.056151    Uiso  ? N
   N2         1.0     0.452375     0.606287     0.059294    Uiso  ? N
   N3         1.0     0.665681     0.392247     0.061086    Uiso  ? N
   N4         1.0     0.761477     0.552438     0.056653    Uiso  ? N
   Fe1        1.0     0.660026     0.676935     0.093844    Uiso  ? Fe
   Ni1        1.0     0.553307     0.488481     0.094435    Uiso  ? Ni
   O1         1.0     0.560502     0.508974     0.183481    Uiso  ? O
   O2         1.0     0.681750     0.683667     0.184164    Uiso  ? O
   H1         1.0     0.680586     0.753258     0.203539    Uiso  ? H
   H2         1.0     0.593183     0.574343     0.200011    Uiso  ? H
