
#======================================================================
# CRYSTAL DATA
#----------------------------------------------------------------------
data_VESTA_phase_1

_chemical_name_common                  'CONTCAR                               '
_cell_length_a                         12.331300
_cell_length_b                         12.829200
_cell_length_c                         19.994400
_cell_angle_alpha                      89.996696
_cell_angle_beta                       89.998299
_cell_angle_gamma                      89.999496
_cell_volume                           3163.128245
_space_group_name_H-M_alt              'P 1'
_space_group_IT_number                 1

loop_
_space_group_symop_operation_xyz
   'x, y, z'

loop_
   _atom_site_label
   _atom_site_occupancy
   _atom_site_fract_x
   _atom_site_fract_y
   _atom_site_fract_z
   _atom_site_adp_type
   _atom_site_U_iso_or_equiv
   _atom_site_type_symbol
   C1         1.0     0.055765     0.054229     0.049541    Uiso  ? C
   C2         1.0     0.156292     0.109924     0.049180    Uiso  ? C
   C3         1.0     0.156469     0.220864     0.047810    Uiso  ? C
   C4         1.0     0.056580     0.276061     0.047018    Uiso  ? C
   C5         1.0     0.256854     0.055525     0.050868    Uiso  ? C
   C6         1.0     0.357038     0.112137     0.053610    Uiso  ? C
   C7         1.0     0.356711     0.223927     0.052822    Uiso  ? C
   C8         1.0     0.256014     0.277269     0.048590    Uiso  ? C
   C9         1.0     0.457061     0.056941     0.057409    Uiso  ? C
   C10        1.0     0.556585     0.115138     0.060023    Uiso  ? C
   C11        1.0     0.557357     0.229085     0.060623    Uiso  ? C
   C12        1.0     0.455234     0.284035     0.057036    Uiso  ? C
   C13        1.0     0.655175     0.055330     0.060391    Uiso  ? C
   C14        1.0     0.755306     0.111192     0.057618    Uiso  ? C
   C15        1.0     0.756651     0.223398     0.057527    Uiso  ? C
   C16        1.0     0.659500     0.284583     0.061716    Uiso  ? C
   C17        1.0     0.854913     0.054243     0.054326    Uiso  ? C
   C18        1.0     0.955569     0.109399     0.051137    Uiso  ? C
   C19        1.0     0.956547     0.220638     0.050085    Uiso  ? C
   C20        1.0     0.857470     0.276927     0.053063    Uiso  ? C
   C21        1.0     0.057354     0.386963     0.044896    Uiso  ? C
   C22        1.0     0.156063     0.443650     0.043976    Uiso  ? C
   C23        1.0     0.156129     0.554653     0.043772    Uiso  ? C
   C24        1.0     0.057098     0.610500     0.043753    Uiso  ? C
   C25        1.0     0.255169     0.388343     0.046558    Uiso  ? C
   C26        1.0     0.354119     0.443537     0.050722    Uiso  ? C
   C27        1.0     0.355008     0.556340     0.052169    Uiso  ? C
   C28        1.0     0.255224     0.610700     0.046978    Uiso  ? C
   C29        1.0     0.762179     0.445813     0.057475    Uiso  ? C
   C30        1.0     0.859613     0.387752     0.051381    Uiso  ? C
   C31        1.0     0.958573     0.442637     0.046291    Uiso  ? C
   C32        1.0     0.958236     0.553488     0.045433    Uiso  ? C
   C33        1.0     0.858645     0.606239     0.049862    Uiso  ? C
   C34        1.0     0.056111     0.721318     0.045149    Uiso  ? C
   C35        1.0     0.155330     0.777512     0.046585    Uiso  ? C
   C36        1.0     0.155877     0.888540     0.048226    Uiso  ? C
   C37        1.0     0.055299     0.943209     0.048952    Uiso  ? C
   C38        1.0     0.254607     0.721830     0.048366    Uiso  ? C
   C39        1.0     0.354255     0.776355     0.053040    Uiso  ? C
   C40        1.0     0.356172     0.888284     0.053586    Uiso  ? C
   C41        1.0     0.256295     0.943995     0.050549    Uiso  ? C
   C42        1.0     0.451912     0.717304     0.059420    Uiso  ? C
   C43        1.0     0.554316     0.885287     0.062343    Uiso  ? C
   C44        1.0     0.456180     0.944426     0.057849    Uiso  ? C
   C45        1.0     0.754479     0.884710     0.059360    Uiso  ? C
   C46        1.0     0.654737     0.942559     0.061862    Uiso  ? C
   C47        1.0     0.856618     0.718896     0.050963    Uiso  ? C
   C48        1.0     0.955671     0.775704     0.047803    Uiso  ? C
   C49        1.0     0.954996     0.887263     0.050126    Uiso  ? C
   C50        1.0     0.854438     0.942165     0.054355    Uiso  ? C
   C51        1.0     0.551314     0.774027     0.065271    Uiso  ? C
   C52        1.0     0.756582     0.772673     0.059657    Uiso  ? C
   N1         1.0     0.450165     0.391450     0.057234    Uiso  ? N
   N2         1.0     0.450904     0.607909     0.060656    Uiso  ? N
   N3         1.0     0.665776     0.392927     0.065101    Uiso  ? N
   N4         1.0     0.762350     0.552936     0.056101    Uiso  ? N
   Fe1        1.0     0.653279     0.670925     0.082947    Uiso  ? Fe
   Ni1        1.0     0.556296     0.489305     0.083631    Uiso  ? Ni
   O1         1.0     0.601990     0.540076     0.167341    Uiso  ? O
   O2         1.0     0.643874     0.640886     0.171216    Uiso  ? O
