
#======================================================================
# CRYSTAL DATA
#----------------------------------------------------------------------
data_VESTA_phase_1

_chemical_name_common                  '1h\(2)                                '
_cell_length_a                         12.331300
_cell_length_b                         12.829200
_cell_length_c                         19.994400
_cell_angle_alpha                      89.996696
_cell_angle_beta                       89.998299
_cell_angle_gamma                      89.999496
_cell_volume                           3163.128245
_space_group_name_H-M_alt              'P 1'
_space_group_IT_number                 1

loop_
_space_group_symop_operation_xyz
   'x, y, z'

loop_
   _atom_site_label
   _atom_site_occupancy
   _atom_site_fract_x
   _atom_site_fract_y
   _atom_site_fract_z
   _atom_site_adp_type
   _atom_site_U_iso_or_equiv
   _atom_site_type_symbol
   C1         1.0     0.055705     0.053851     0.053948    Uiso  ? C
   C2         1.0     0.156146     0.109623     0.053640    Uiso  ? C
   C3         1.0     0.156315     0.220446     0.053233    Uiso  ? C
   C4         1.0     0.056602     0.275652     0.053115    Uiso  ? C
   C5         1.0     0.256650     0.055408     0.054244    Uiso  ? C
   C6         1.0     0.356804     0.111988     0.055356    Uiso  ? C
   C7         1.0     0.356358     0.223477     0.055067    Uiso  ? C
   C8         1.0     0.255613     0.276922     0.053628    Uiso  ? C
   C9         1.0     0.457141     0.056961     0.056961    Uiso  ? C
   C10        1.0     0.556615     0.115384     0.058315    Uiso  ? C
   C11        1.0     0.557367     0.229620     0.058138    Uiso  ? C
   C12        1.0     0.454663     0.284192     0.056355    Uiso  ? C
   C13        1.0     0.655077     0.054910     0.059181    Uiso  ? C
   C14        1.0     0.755132     0.111217     0.058166    Uiso  ? C
   C15        1.0     0.756431     0.223493     0.057943    Uiso  ? C
   C16        1.0     0.659356     0.285745     0.059044    Uiso  ? C
   C17        1.0     0.854696     0.053735     0.056826    Uiso  ? C
   C18        1.0     0.955403     0.108855     0.054923    Uiso  ? C
   C19        1.0     0.956625     0.220095     0.054450    Uiso  ? C
   C20        1.0     0.857734     0.276505     0.056062    Uiso  ? C
   C21        1.0     0.057819     0.386533     0.052501    Uiso  ? C
   C22        1.0     0.156079     0.443494     0.052107    Uiso  ? C
   C23        1.0     0.156293     0.554350     0.051833    Uiso  ? C
   C24        1.0     0.057656     0.610400     0.052192    Uiso  ? C
   C25        1.0     0.254829     0.388075     0.053131    Uiso  ? C
   C26        1.0     0.353820     0.442843     0.054158    Uiso  ? C
   C27        1.0     0.354769     0.555821     0.054035    Uiso  ? C
   C28        1.0     0.255249     0.610468     0.052568    Uiso  ? C
   C29        1.0     0.763733     0.445126     0.059519    Uiso  ? C
   C30        1.0     0.860870     0.387310     0.056142    Uiso  ? C
   C31        1.0     0.959591     0.442379     0.053826    Uiso  ? C
   C32        1.0     0.959306     0.553186     0.053824    Uiso  ? C
   C33        1.0     0.860119     0.606239     0.057461    Uiso  ? C
   C34        1.0     0.056424     0.721117     0.052701    Uiso  ? C
   C35        1.0     0.155245     0.777457     0.052512    Uiso  ? C
   C36        1.0     0.155763     0.888452     0.053145    Uiso  ? C
   C37        1.0     0.055305     0.943128     0.053810    Uiso  ? C
   C38        1.0     0.254201     0.721726     0.052687    Uiso  ? C
   C39        1.0     0.353405     0.776668     0.054091    Uiso  ? C
   C40        1.0     0.355847     0.888361     0.054896    Uiso  ? C
   C41        1.0     0.256012     0.944028     0.053923    Uiso  ? C
   C42        1.0     0.451288     0.717919     0.056246    Uiso  ? C
   C43        1.0     0.554249     0.885124     0.059503    Uiso  ? C
   C44        1.0     0.456195     0.944478     0.057024    Uiso  ? C
   C45        1.0     0.754315     0.883107     0.059867    Uiso  ? C
   C46        1.0     0.654494     0.942103     0.060139    Uiso  ? C
   C47        1.0     0.857550     0.718835     0.057504    Uiso  ? C
   C48        1.0     0.956361     0.775655     0.054691    Uiso  ? C
   C49        1.0     0.955112     0.887024     0.055123    Uiso  ? C
   C50        1.0     0.854207     0.941441     0.057321    Uiso  ? C
   C51        1.0     0.550692     0.773529     0.060699    Uiso  ? C
   C52        1.0     0.756914     0.771210     0.061040    Uiso  ? C
   N1         1.0     0.449824     0.390918     0.055567    Uiso  ? N
   N2         1.0     0.451700     0.608418     0.055900    Uiso  ? N
   N3         1.0     0.666125     0.394735     0.060234    Uiso  ? N
   N4         1.0     0.764027     0.552461     0.061721    Uiso  ? N
   Fe1        1.0     0.647277     0.663836     0.069363    Uiso  ? Fe
   Ni1        1.0     0.560111     0.501281     0.057503    Uiso  ? Ni
